<?xml version="1.0" encoding="UTF-8"?>

<!-- generated on 12/25/18 05:32:39 by Eclipse SUMO polyconvert Version 1.0.1
<configuration xmlns:xsi="http://www.w3.org/2001/XMLSchema-instance" xsi:noNamespaceSchemaLocation="http://sumo.dlr.de/xsd/polyconvertConfiguration.xsd">

    <input>
        <net-file value="projektkorsning.net.xml"/>
        <osm-files value="projektkorsning.osm"/>
        <type-file value="typemap.xml"/>
    </input>

    <output>
        <output-file value="projektkorsning.poly.xml"/>
    </output>

    <processing>
        <poi-layer-offset value="5"/>
    </processing>

</configuration>
-->

<additional xmlns:xsi="http://www.w3.org/2001/XMLSchema-instance" xsi:noNamespaceSchemaLocation="http://sumo.dlr.de/xsd/additional_file.xsd">
    <location netOffset="-222287.59,-3350064.18" convBoundary="-12385.00,-8782.28,20025.43,7863.02" origBoundary="119.984881,30.174510,120.323931,30.321661" projParameter="+proj=utm +zone=51 +ellps=WGS84 +datum=WGS84 +units=m +no_defs"/>

    <poly id="27752178" type="water" color="181,209,209" fill="0" layer="-4.00" shape="5181.465715,-1018.727073 5221.235839,-1023.556701 5282.686750,-1031.222814 5331.898700,-1044.120120 5449.062452,-1080.232673 5465.091745,-1078.690050 5472.747493,-1068.728858 5521.911771,-937.613749 5631.253477,-696.825964 5638.337353,-678.085587 5683.173065,-570.605180 5715.618370,-462.827589 5733.430126,-388.414126 5747.292312,-332.208806 5754.349898,-301.729459 5763.252804,-260.955670 5769.304673,-232.182092 5781.069818,-191.346339 5801.962894,-149.095537 5815.455834,-105.007580 5819.574913,-39.295803 5819.217152,46.253814 5837.503337,116.550490 5869.250167,362.531108 5878.960377,420.692570 5888.220588,460.758550 5887.136846,516.725364 5879.644861,714.321083 5882.925479,912.470003 5883.590042,972.498458 5898.400164,1102.904394 5911.645881,1269.551544 5909.622640,1420.934803 5904.605499,1551.833915 5896.245496,1647.446007 5895.214184,1705.874675 5883.869909,1748.095211 5888.163331,1821.191900 5894.755611,1886.820079 5884.015560,1986.607647 5888.717898,2076.136683 5878.909067,2246.619452 5873.170622,2330.261779 5869.112686,2420.286209 5810.848103,2629.464535 5787.201501,2739.492512 5762.290869,2848.620110 5731.687084,2883.387772 5716.446515,2890.856879"/>
    <poly id="288575220" type="leisure" color="207,245,201" fill="0" layer="-2.00" shape="6499.241019,1776.062834 6453.601030,1779.503432 6432.830623,1785.422207 6427.874222,1804.561654 6429.576822,1810.688063 6437.724791,1816.144097 6444.483986,1818.028822"/>
    <poly id="288575220#1" type="sport" color="79,230,125" fill="0" layer="-2.00" shape="6499.241019,1776.062834 6453.601030,1779.503432 6432.830623,1785.422207 6427.874222,1804.561654 6429.576822,1810.688063 6437.724791,1816.144097 6444.483986,1818.028822"/>
    <poly id="288575221" type="leisure" color="207,245,201" fill="0" layer="-2.00" shape="6444.483986,1818.028822 6451.240141,1819.403268 6461.345615,1820.694574 6481.284031,1822.773619 6490.546062,1821.511907 6502.827636,1816.580561 6504.788471,1812.160566 6505.203074,1808.300400 6505.574536,1791.837682 6499.241019,1776.062834"/>
    <poly id="288575221#1" type="sport" color="79,230,125" fill="0" layer="-2.00" shape="6444.483986,1818.028822 6451.240141,1819.403268 6461.345615,1820.694574 6481.284031,1822.773619 6490.546062,1821.511907 6502.827636,1816.580561 6504.788471,1812.160566 6505.203074,1808.300400 6505.574536,1791.837682 6499.241019,1776.062834"/>
    <poly id="288873035" type="amenity" color="237,199,199" fill="1" layer="-1.00" shape="5158.065406,1717.767699 5220.344922,1716.147913 5301.050434,1714.246639 5298.450791,1787.670650 5304.301763,1787.879822 5298.783862,1864.383301 5280.145275,2024.148043 5244.692330,2020.915885 5246.347282,2001.547355 5157.425918,1991.738283 5150.817383,2094.730466 5241.768243,2099.451720 5238.717847,2138.936773 5255.714653,2140.842830 5248.121529,2243.382371 5126.685607,2240.708742 5139.738721,2093.420276 5145.216006,1989.479948 5144.335980,1785.489319 5156.538040,1785.107291 5158.065406,1717.767699"/>
    <poly id="331537619" type="leisure" color="207,245,201" fill="1" layer="-2.00" shape="5405.612828,2052.485371 5381.532609,2030.285614 5351.618619,2024.019302 5324.939160,2021.566727 5304.826255,2031.421125 5289.040132,2042.543446 5268.991347,2195.930624 5277.378777,2218.310627 5294.118062,2230.363861 5303.705359,2237.913407 5325.051186,2245.081034 5352.325071,2244.745023 5365.596245,2242.073174 5376.998426,2237.439761 5386.770793,2230.395022 5395.151679,2218.137108 5401.236024,2204.150171 5410.640922,2075.326404 5405.612828,2052.485371"/>
    <poly id="331537620" type="building" color="255,230,230" fill="1" layer="-1.00" shape="5272.356762,2391.515841 5283.261696,2393.596013 5297.274046,2393.235501 5309.260816,2391.971357 5320.783625,2386.003474 5330.079364,2379.547484 5334.981303,2371.059738 5336.083088,2360.403387 5333.919025,2352.014149 5327.773502,2345.000087 5323.675606,2341.318909 5315.601138,2336.505351 5308.097077,2332.554070 5296.631234,2331.153546 5279.755189,2331.374659 5268.205462,2335.878728 5260.896872,2341.697186 5255.299384,2348.937499 5251.260115,2359.578366 5252.103912,2370.630006 5256.219898,2379.669532 5263.298820,2387.425825 5272.356762,2391.515841"/>
    <poly id="331537620#1" type="leisure" color="207,245,201" fill="1" layer="-2.00" shape="5272.356762,2391.515841 5283.261696,2393.596013 5297.274046,2393.235501 5309.260816,2391.971357 5320.783625,2386.003474 5330.079364,2379.547484 5334.981303,2371.059738 5336.083088,2360.403387 5333.919025,2352.014149 5327.773502,2345.000087 5323.675606,2341.318909 5315.601138,2336.505351 5308.097077,2332.554070 5296.631234,2331.153546 5279.755189,2331.374659 5268.205462,2335.878728 5260.896872,2341.697186 5255.299384,2348.937499 5251.260115,2359.578366 5252.103912,2370.630006 5256.219898,2379.669532 5263.298820,2387.425825 5272.356762,2391.515841"/>
    <poly id="337203121" type="landuse" color="194,194,130" fill="1" layer="-3.00" shape="5856.404468,973.795886 5931.738303,969.858829 5940.849725,1086.848648 5948.036910,1251.172295 5948.136291,1257.105534 5949.515218,1339.283607 5952.354931,1508.086756 5946.228932,1578.147372 5938.325670,1650.315839 5885.736145,1654.708241 5877.791305,1542.837318 5877.043958,1339.721299 5869.286321,1159.479645 5869.671271,1091.703089 5856.404468,973.795886"/>
    <poly id="337813312" type="tourism" color="207,245,201" fill="1" layer="-2.00" shape="6688.431865,2852.139689 6798.698118,2860.643216 6821.412590,2800.789644 6869.865414,2660.083116 6899.301743,2503.095346 6907.565337,2419.624684 6983.754662,2450.632114 7013.303515,2496.675135 7034.934960,2494.075522 7038.902307,2341.325276 6984.129185,2340.618855 6988.262513,2173.984984 6947.385559,1900.515077 6924.722845,1903.129211 6858.188097,1928.421130 6818.777853,2214.166139 6705.054166,2710.935045 6693.758165,2755.161557 6688.431865,2852.139689"/>
    <poly id="337813313" type="landuse" color="194,194,130" fill="1" layer="-3.00" shape="6858.188097,1928.421130 6924.722845,1903.129211 6889.018566,1568.765548 6831.812587,989.398171 6882.993494,969.623946 6871.862467,895.875999 6883.824619,794.817673 6825.355378,801.125956 6797.335415,488.950112 6731.712145,494.248894 6756.386487,739.373676 6762.185637,848.213133 6740.081181,873.435690 6743.771253,939.146879 6788.302848,1026.456654 6824.126403,1429.626550 6858.188097,1928.421130"/>
    <poly id="412349334" type="building" color="255,230,230" fill="1" layer="-1.00" shape="6475.299700,1651.131191 6473.084992,1640.668349 6549.994867,1631.747738 6552.768368,1648.820277 6542.239042,1650.634821 6540.852422,1642.104097 6475.299700,1651.131191"/>
    <poly id="412349336" type="building" color="255,230,230" fill="1" layer="-1.00" shape="6508.871466,1662.757337 6509.084183,1671.328289 6514.550958,1670.804298 6515.552620,1679.732891 6556.178047,1676.006520 6554.568853,1658.505679 6508.871466,1662.757337"/>
    <poly id="412349338" type="building" color="255,230,230" fill="1" layer="-1.00" shape="6478.587971,1688.938109 6481.061835,1705.574288 6518.797319,1702.207964 6517.894800,1685.632637 6478.587971,1688.938109"/>
    <poly id="412349340" type="building" color="255,230,230" fill="1" layer="-1.00" shape="6510.950729,1713.552912 6512.391025,1723.857461 6553.539860,1719.885085 6552.686702,1709.565965 6510.950729,1713.552912"/>
    <poly id="412349342" type="building" color="255,230,230" fill="1" layer="-1.00" shape="6514.026762,1730.007728 6515.532824,1742.962288 6556.921342,1736.620790 6555.430187,1724.264976 6514.026762,1730.007728"/>
    <poly id="412349344" type="building" color="255,230,230" fill="1" layer="-1.00" shape="6480.977768,1749.134326 6481.828527,1759.741971 6506.678215,1756.762009 6504.939828,1746.475953 6480.977768,1749.134326"/>
    <poly id="417040836" type="landuse" color="194,194,130" fill="1" layer="-3.00" shape="5751.201212,2755.555396 5840.822263,2767.070916 5909.133184,2403.191859 5908.282144,2314.021867 5833.608902,2303.886429 5819.852390,2458.468936 5780.496869,2607.875066 5776.304905,2644.503587 5751.201212,2755.555396"/>
    <poly id="417040839" type="landuse" color="194,194,130" fill="1" layer="-3.00" shape="5854.523292,2249.234387 5919.421417,2255.075402 5942.337696,1833.313449 5924.618975,1833.754157 5930.178484,1700.666936 5878.415089,1702.642373 5864.103284,1785.066658 5847.658731,1973.355231 5823.102119,1972.612698 5814.036163,2046.763028 5864.018044,2055.693267 5854.523292,2249.234387"/>
    <poly id="429910993" type="building" color="255,230,230" fill="1" layer="-1.00" shape="5196.991751,1657.494790 5199.273621,1584.866366 5245.015486,1587.786501 5246.906835,1444.626753 5326.644303,1443.992624 5327.369338,1609.476453 5378.423771,1606.850426 5379.170826,1612.867406 5381.674838,1678.564168 5327.093362,1680.701197 5324.174301,1645.503418 5306.455201,1645.945107 5305.544871,1636.470603 5254.396618,1635.715392 5253.621522,1659.477720 5196.991751,1657.494790"/>
    <poly id="429910993#1" type="shop" color="237,199,255" fill="1" layer="-1.00" shape="5196.991751,1657.494790 5199.273621,1584.866366 5245.015486,1587.786501 5246.906835,1444.626753 5326.644303,1443.992624 5327.369338,1609.476453 5378.423771,1606.850426 5379.170826,1612.867406 5381.674838,1678.564168 5327.093362,1680.701197 5324.174301,1645.503418 5306.455201,1645.945107 5305.544871,1636.470603 5254.396618,1635.715392 5253.621522,1659.477720 5196.991751,1657.494790"/>
    <poly id="445291621" type="amenity" color="237,199,199" fill="1" layer="-1.00" shape="6571.012460,1617.147009 6688.222893,1603.810349 6699.861575,1626.532143 6719.311952,1827.552030 6717.641537,1947.360960 6592.698084,1950.460498 6582.766501,1946.080433 6583.016179,1776.058551 6571.012460,1617.147009"/>
    <poly id="488488562" type="leisure" color="207,245,201" fill="1" layer="-2.00" shape="5204.682768,2193.695615 5207.047686,2157.622665 5213.613552,2147.118480 5219.446425,2143.134177 5225.331014,2141.223329 5233.079002,2142.206154 5240.338454,2147.927582 5246.524719,2158.113726 5243.927685,2196.855214 5240.567421,2204.605571 5236.238830,2209.439939 5229.227243,2214.041662 5224.206276,2215.054478 5218.240976,2213.727640 5211.307058,2209.473727 5208.516144,2204.528455 5206.016112,2199.276366 5204.682768,2193.695615"/>
    <poly id="488488563" type="leisure" color="207,245,201" fill="1" layer="-2.00" shape="5132.918188,2212.605231 5138.794872,2115.034460 5144.830387,2107.206233 5155.327285,2099.865839 5168.631969,2097.758768 5182.903130,2098.878405 5196.017653,2101.502528 5202.988422,2107.231136 5205.243990,2114.264503 5201.242889,2215.627225 5198.215915,2225.155562 5192.300413,2233.546609 5186.954619,2237.751775 5179.200730,2241.162708 5165.009129,2241.294831 5152.057216,2240.164512 5144.629626,2235.423687 5139.526765,2229.293482 5135.275184,2221.000727 5132.918188,2212.605231"/>
    <poly id="491920829" type="amenity" color="237,199,199" fill="1" layer="-1.00" shape="5091.616543,1667.689873 5089.509653,1599.065146 5028.718825,1600.936931 5029.749326,1634.129296 5055.703660,1633.337448 5055.901236,1639.712074 5046.032684,1647.935528 5041.627410,1657.808945 5041.956791,1668.307580 5047.740414,1668.129981 5047.983864,1675.956893 5083.734662,1674.865191 5083.513644,1667.936406 5091.616543,1667.689873"/>
    <poly id="491920829#1" type="building" color="255,230,230" fill="1" layer="-1.00" shape="5091.616543,1667.689873 5089.509653,1599.065146 5028.718825,1600.936931 5029.749326,1634.129296 5055.703660,1633.337448 5055.901236,1639.712074 5046.032684,1647.935528 5041.627410,1657.808945 5041.956791,1668.307580 5047.740414,1668.129981 5047.983864,1675.956893 5083.734662,1674.865191 5083.513644,1667.936406 5091.616543,1667.689873"/>
    <poly id="512754927" type="water" color="181,209,209" fill="1" layer="-4.00" shape="6631.867891,2812.936566 6632.393240,2807.720093 6635.661146,2807.860887 6635.208077,2811.333691 6633.572065,2811.374293 6633.403272,2813.109262 6682.604683,2816.770014 6688.737642,2755.019850 6699.504481,2701.109660 6730.990879,2584.554992 6749.586082,2502.259012 6762.244298,2446.926301 6768.192290,2387.388719 6798.206271,2288.655813 6818.728960,2202.872931 6834.679163,2119.477909 6847.715797,2028.865951 6855.833378,1932.884099 6856.701938,1803.587055 6851.367523,1715.427626 6841.044069,1620.257975 6836.029926,1576.879934 6835.058144,1574.196915 6826.888725,1573.700453 6755.749045,1588.910918 6750.610551,1592.577542 6744.053901,1603.524180 6741.980714,1611.574876 6752.193328,1722.435190 6757.508001,1789.958970 6761.088445,1912.988241 6747.618885,2063.400522 6729.621783,2167.527053 6705.959537,2263.761607 6679.484699,2372.758419 6655.836205,2469.503216 6626.556973,2601.646937 6601.206881,2713.977949 6583.185533,2785.187548 6581.569240,2793.781719 6582.801521,2801.528551 6586.310955,2806.356415 6591.068383,2809.089680 6596.566791,2810.251290 6605.199199,2811.590297 6631.867891,2812.936566"/>
    <poly id="512754928" type="water" color="181,209,209" fill="1" layer="-4.00" shape="6744.084141,1549.592036 6823.442802,1530.649665 6827.222883,1527.349594 6827.350030,1519.657813 6817.578659,1398.202238 6796.660912,1242.418598 6790.452526,1160.582657 6786.320406,1059.157491 6780.333369,1015.781393 6771.279640,997.111546 6737.867391,940.313952 6737.873294,929.285673 6732.902592,924.582707 6728.585811,923.724487 6716.420849,924.858186 6714.144036,927.810352 6715.103980,938.947824 6712.885175,944.239535 6705.370851,948.431030 6687.374453,982.782671 6690.107279,1055.706988 6692.189594,1159.102419 6699.890527,1254.880700 6712.259718,1362.592085 6731.038055,1533.806010 6733.979045,1544.827795 6739.418637,1549.030945 6744.084141,1549.592036"/>
    <poly id="512755465" type="water" color="181,209,209" fill="0" layer="-4.00" shape="6638.894184,2810.864992 6655.481960,2743.574246 6799.126398,2160.710898 6817.619015,1882.329818 6763.778379,1247.360979 6734.772510,1066.437594 6703.874006,534.147627 6650.119156,248.183102 6620.351751,114.342455 6619.024897,98.898250 6651.440585,75.760955 6651.280678,63.871406 6619.486786,10.695049 6573.930890,-117.739274 6553.176897,-204.617580 6517.657836,-303.478106"/>
    <poly id="519348633" type="building" color="255,230,230" fill="1" layer="-1.00" shape="5942.012346,1778.413398 5939.381331,1705.153338 5992.504250,1703.244235 5995.436010,1784.740224 6011.350601,1784.166981 6012.468221,1815.171314 5998.680143,1815.669492 5998.895850,1821.633125 5953.028466,1823.284137 5951.403432,1778.079982 5942.012346,1778.413398"/>
    <poly id="519348634" type="building" color="255,230,230" fill="1" layer="-1.00" shape="5948.998590,1874.609034 5950.672072,1846.253494 5970.469216,1847.292219 5970.169790,1855.776088 5974.588158,1862.278703 5985.218981,1864.555038 5983.341950,1885.115988 5955.846025,1882.748733 5948.998590,1874.609034"/>
    <poly id="519348635" type="building" color="255,230,230" fill="1" layer="-1.00" shape="5979.290260,1924.336989 5975.006355,1917.431617 5979.533495,1910.495733 6003.065676,1912.251538 6005.006166,1919.414899 6000.858728,1925.742211 5979.290260,1924.336989"/>
    <poly id="519348636" type="building" color="255,230,230" fill="1" layer="-1.00" shape="5942.825317,1964.430726 5944.741070,1944.656526 5975.786101,1947.623350 5973.870293,1967.397541 5942.825317,1964.430726"/>
    <poly id="519348637" type="residential" color="235,235,227" fill="1" layer="-3.00" shape="5941.614722,1970.352175 5949.945055,1835.221160 5971.530394,1835.361115 5970.469216,1847.292219 5970.169790,1855.776088 5974.588158,1862.278703 5985.218981,1864.555038 6011.236378,1867.491685 6001.286535,1973.927350 5941.614722,1970.352175"/>
    <poly id="519348638" type="building" color="255,230,230" fill="1" layer="-1.00" shape="5937.323369,2207.055544 5931.392498,2201.300643 5931.353439,2193.923570 5935.653081,2187.914179 5950.049922,2182.097418 5959.297733,2182.599648 5959.564937,2177.855522 5978.543151,2178.903477 5978.178181,2185.525055 5981.219374,2188.544865 5980.781741,2198.052897 5952.042124,2196.759570 5951.804929,2201.935648 5947.071181,2201.720552 5946.818355,2207.429570 5937.323369,2207.055544"/>
    <poly id="519348639" type="building" color="255,230,230" fill="1" layer="-1.00" shape="5938.014515,2150.443764 5935.005449,2139.812130 5946.052079,2127.455112 5955.194945,2124.897789 5985.208843,2127.856954 5983.982755,2140.125008 5972.716524,2139.007267 5972.331558,2142.888927 5960.495843,2141.718794 5960.147971,2145.155739 5952.685548,2144.420485 5951.945302,2151.828035 5938.014515,2150.443764"/>
    <poly id="519348640" type="building" color="255,230,230" fill="1" layer="-1.00" shape="5945.401213,2079.220015 5939.470287,2073.465106 5939.440868,2066.087796 5943.740572,2060.078412 5958.137318,2054.250588 5967.385510,2054.763920 5967.643104,2050.020035 5986.631160,2051.067781 5986.256547,2057.689596 5989.297768,2060.709410 5988.869734,2070.217200 5960.120163,2068.924067 5959.892578,2074.099904 5955.158775,2073.884801 5954.896309,2079.594056 5945.401213,2079.220015"/>
    <poly id="519348643" type="building" color="255,230,230" fill="1" layer="-1.00" shape="5955.155284,2021.861378 5955.904156,2015.574192 5996.438833,2017.927809 5998.456222,1999.526852 5954.039659,1994.817820 5951.003632,1999.364536 5943.037511,2004.710662 5942.718650,2010.088475 5942.641805,2015.904061 5947.716686,2020.925820 5955.155284,2021.861378"/>
    <poly id="519353673" type="tourism" color="207,245,201" fill="1" layer="-2.00" shape="6279.942134,2164.743455 6270.403806,2080.061070 6312.143784,2073.964954 6429.511748,2070.661848 6427.493708,2099.536121 6438.832615,2114.831616 6436.632791,2152.286645 6411.099399,2149.026393 6408.549774,2156.489907 6384.681773,2157.082621 6382.258022,2170.001638 6279.942134,2164.743455"/>
    <poly id="520199008" type="water" color="181,209,209" fill="1" layer="-4.00" shape="5771.763125,2765.328383 5785.211683,2766.324961 5791.166762,2762.615275 5795.089510,2740.705194 5802.638571,2684.199942 5807.969438,2655.797635 5824.990766,2611.527230 5839.007362,2563.759116 5862.679619,2489.933114 5875.287052,2448.213542 5884.486349,2413.490866 5883.080609,2392.601029 5879.792042,2377.316541 5879.886020,2363.290361 5882.386897,2319.825234 5880.463840,2314.525384 5867.655055,2312.170245 5863.323874,2318.069510 5863.117028,2372.838653 5860.273167,2420.317560 5855.124698,2447.161993 5832.993431,2528.738213 5817.269567,2570.979223 5810.635696,2610.098262 5806.160887,2619.118787 5801.525180,2621.675037 5791.248629,2622.385729 5781.826483,2621.055904 5779.921980,2634.683381 5787.585791,2636.944560 5795.537187,2641.861343 5797.272021,2648.497243 5784.748307,2702.452479 5780.109147,2723.049019 5773.726501,2726.991250 5770.462302,2748.663050 5774.302590,2750.131815 5771.763125,2765.328383"/>
    <poly id="520199009" type="water" color="181,209,209" fill="1" layer="-4.00" shape="5874.444717,2265.358718 5882.308248,2265.961889 5890.084464,2254.540465 5893.408761,2242.231278 5893.065032,2228.415699 5897.252037,2161.753782 5900.171208,2109.158349 5902.858144,2071.613254 5902.629316,2046.156372 5900.226892,2022.362310 5894.321151,1987.427461 5895.017807,1974.784244 5897.809079,1941.430398 5907.520347,1918.744035 5911.120147,1885.370088 5910.297513,1868.559740 5906.192943,1840.991411 5896.302172,1799.942602 5891.853890,1758.558705 5894.654777,1741.846833 5904.622992,1721.350870 5908.406658,1711.238154 5907.630691,1704.434155 5907.486174,1698.624076 5892.567388,1698.196345 5884.820491,1710.815227 5875.206194,1745.537035 5875.866341,1780.202961 5885.105076,1851.945106 5885.526706,1917.283003 5883.275375,1923.951514 5884.485681,1932.342360 5876.577847,1986.870351 5874.154222,1994.741392 5872.154963,2003.411796 5874.518083,2009.366388 5876.704193,2016.335011 5877.569560,2026.731503 5882.518748,2079.730302 5878.894027,2128.737487 5874.715985,2138.860049 5872.422347,2151.953516 5874.094298,2227.278954 5873.087825,2243.335997 5874.444717,2265.358718"/>
    <poly id="520199010" type="water" color="181,209,209" fill="1" layer="-4.00" shape="5893.340527,1647.973152 5906.943750,1647.390702 5914.706878,1591.279845 5917.566440,1547.106918 5919.745732,1495.328793 5923.339466,1440.786180 5925.131460,1353.292480 5923.908045,1284.346604 5915.629417,1210.150835 5911.613679,1158.271622 5906.720351,1080.785279 5900.096081,1023.545591 5892.118924,981.617068 5889.555247,968.378175 5876.689813,968.454044 5873.060903,982.091031 5888.305751,1077.304582 5895.804646,1159.641120 5901.347222,1263.228460 5900.251313,1318.685288 5895.590888,1350.088511 5898.458666,1425.894469 5895.794555,1507.740458 5892.524665,1535.414546 5893.494645,1604.610852 5893.340527,1647.973152"/>
    <poly id="525326051" type="parking" color="184,184,179" fill="1" layer="-1.00" shape="5381.674838,1678.564168 5379.170826,1612.867406 5433.581039,1610.801507 5435.374487,1658.043040 5405.768966,1659.169064 5406.479253,1677.624283 5381.674838,1678.564168"/>
    <poly id="525326053" type="building" color="255,230,230" fill="1" layer="-1.00" shape="5437.916631,1787.123684 5442.727099,1728.567276 5559.685173,1724.089360 5559.234537,1784.878076 5529.119278,1786.016495 5529.005833,1797.313864 5437.916631,1787.123684"/>
    <poly id="525327432" type="building" color="255,230,230" fill="1" layer="-1.00" shape="5213.299580,1836.037220 5170.424019,1832.546556 5169.321003,1845.854630 5252.833280,1852.658938 5253.936119,1839.339791 5213.299580,1836.037220"/>
    <poly id="525327433" type="building" color="255,230,230" fill="1" layer="-1.00" shape="5153.758559,1901.084773 5154.764133,1885.415916 5166.454764,1886.156133 5165.912309,1894.524104 5203.462910,1896.893808 5204.851068,1875.324045 5247.581689,1878.030705 5247.157997,1884.598336 5212.520064,1882.399927 5211.581617,1896.902135 5228.346049,1897.970772 5227.637264,1908.939082 5199.240271,1907.139833 5199.440845,1903.983887 5153.758559,1901.084773"/>
    <poly id="525327434" type="building" color="255,230,230" fill="1" layer="-1.00" shape="5155.546222,1935.301157 5156.393102,1923.308661 5250.425186,1929.883774 5249.578206,1941.876255 5241.928038,1941.345855 5201.814683,1938.540681 5169.978447,1936.305831 5155.546222,1935.301157"/>
    <poly id="525327435" type="building" color="255,230,230" fill="1" layer="-1.00" shape="5154.544097,1980.449017 5155.159871,1969.616151 5177.562246,1970.854720 5176.946727,1981.698671 5154.544097,1980.449017"/>
    <poly id="525327436" type="building" color="255,230,230" fill="1" layer="-1.00" shape="5222.950633,1986.309532 5223.566197,1975.465588 5245.968815,1976.715383 5245.353230,1987.559325 5222.950633,1986.309532"/>
    <poly id="525327437" type="building" color="255,230,230" fill="1" layer="-1.00" shape="5153.525294,1957.752123 5154.372167,1945.759627 5169.778937,1946.839844 5201.238684,1949.039700 5240.946945,1951.821686 5248.413964,1952.345556 5247.557366,1964.338278 5153.525294,1957.752123"/>
    <poly id="525327438" type="building" color="255,230,230" fill="1" layer="-1.00" shape="5190.001592,1989.261507 5206.463493,1990.947860 5207.832432,1967.836386 5191.126623,1966.411292 5190.001592,1989.261507"/>
    <poly id="525327439" type="building" color="255,230,230" fill="1" layer="-1.00" shape="5260.429338,1855.265439 5261.664545,1836.439942 5301.416044,1839.010304 5300.190395,1857.835553 5260.429338,1855.265439"/>
    <poly id="527239674" type="water" color="181,209,209" fill="0" layer="-4.00" shape="5380.078523,2520.159906 5402.397669,2304.074784 5414.132901,2298.123910 5499.976688,2301.643040 5515.657658,2315.298415 5515.218763,2334.015262 5503.509573,2351.060226 5491.204550,2469.793269"/>
    <poly id="527239676" type="building" color="255,230,230" fill="1" layer="-1.00" shape="5411.576683,2426.998923 5416.894899,2380.733945 5475.969179,2387.449702 5481.712301,2392.232703 5484.116337,2398.663286 5479.801273,2436.116085 5457.898310,2433.621924 5457.297312,2438.873673 5428.914249,2435.642382 5429.674552,2429.055277 5411.576683,2426.998923"/>
    <poly id="527239678" type="landuse" color="194,194,130" fill="1" layer="-3.00" shape="5406.534183,2365.714566 5497.593459,2376.437324 5498.949559,2347.767728 5507.027222,2338.413212 5508.160667,2312.400837 5491.955230,2305.138078 5415.924578,2302.006833 5406.618970,2309.616850 5406.534183,2365.714566"/>
    <poly id="527239680" type="leisure" color="207,245,201" fill="1" layer="-2.00" shape="5370.701668,2356.866476 5371.074398,2340.913868 5372.135998,2295.420664 5388.165488,2295.620216 5386.439908,2357.361744 5370.701668,2356.866476"/>
    <poly id="527239680#1" type="sport" color="79,230,125" fill="1" layer="-2.00" shape="5370.701668,2356.866476 5371.074398,2340.913868 5372.135998,2295.420664 5388.165488,2295.620216 5386.439908,2357.361744 5370.701668,2356.866476"/>
    <poly id="527239683" type="landuse" color="194,194,130" fill="1" layer="-3.00" shape="5330.016365,2461.606691 5360.694217,2461.862563 5363.429175,2352.931578 5371.074398,2340.913868 5372.135998,2295.420664 5364.479962,2285.759279 5304.705100,2286.506187 5292.132088,2286.664361 5277.575671,2286.838725 5202.044317,2287.524227 5202.333130,2339.640760 5194.048468,2353.427546 5202.668436,2370.842289 5203.057308,2386.431989 5211.245013,2386.904544 5212.941661,2414.000296 5248.181584,2416.849222 5246.464041,2459.185725 5330.016365,2461.606691"/>
    <poly id="527239687" type="building" color="255,230,230" fill="1" layer="-1.00" shape="5251.074445,2450.982574 5251.436047,2423.780016 5277.705392,2424.112331 5277.919564,2407.986141 5298.688635,2408.255966 5298.485003,2423.261308 5326.835339,2423.630609 5326.453353,2451.954235 5251.074445,2450.982574"/>
    <poly id="527239703" type="building" color="255,230,230" fill="1" layer="-1.00" shape="5393.082317,2295.453278 5392.903869,2282.498932 5450.125549,2281.705185 5450.304205,2294.670616 5393.082317,2295.453278"/>
    <poly id="527239705" type="building" color="255,230,230" fill="1" layer="-1.00" shape="5472.098955,2295.902672 5471.764634,2282.486233 5534.720698,2282.260107 5534.613657,2296.131330 5472.098955,2295.902672"/>
    <poly id="527239707" type="building" color="255,230,230" fill="1" layer="-1.00" shape="5538.743311,2299.157194 5538.390972,2286.173909 5604.898945,2284.339705 5605.437256,2304.019634 5594.129473,2304.323469 5593.943691,2297.637908 5538.743311,2299.157194"/>
    <poly id="527239709" type="building" color="255,230,230" fill="1" layer="-1.00" shape="5525.619548,2323.204931 5525.914503,2307.986549 5582.444074,2311.504427 5581.918064,2326.728556 5525.619548,2323.204931"/>
    <poly id="527239711" type="building" color="255,230,230" fill="1" layer="-1.00" shape="5545.649864,2480.518991 5564.991576,2482.644423 5575.427839,2388.988051 5583.790432,2389.911414 5587.938728,2352.706937 5583.962007,2342.288083 5549.585911,2338.551146 5549.178910,2343.087982 5531.096734,2342.051754 5522.402024,2346.739599 5515.724228,2353.529600 5513.136626,2359.829375 5511.414069,2375.338512 5542.749383,2378.784945 5539.908794,2404.307290 5510.012228,2401.013636 5502.764189,2466.076916 5546.720328,2470.917469 5545.649864,2480.518991"/>
    <poly id="527239714" type="building" color="255,230,230" fill="1" layer="-1.00" shape="5366.042787,2456.226169 5368.852423,2403.211437 5384.350223,2403.335464 5380.270245,2457.158493 5366.042787,2456.226169"/>
    <poly id="527239716" type="building" color="255,230,230" fill="1" layer="-1.00" shape="5368.427682,2399.693859 5369.766498,2359.142046 5389.736567,2359.420876 5389.314502,2366.055028 5387.641345,2366.540530 5386.297733,2393.767526 5387.895424,2394.504340 5387.705122,2400.777680 5368.427682,2399.693859"/>
    <poly id="527239718" type="building" color="255,230,230" fill="1" layer="-1.00" shape="5145.660464,2343.905927 5145.443708,2297.390487 5148.919686,2297.370336 5151.197543,2293.330445 5155.002945,2291.460327 5159.327072,2292.240041 5160.458317,2295.895320 5200.120107,2295.704769 5200.215554,2314.974191 5165.570774,2315.150537 5165.640978,2328.773300 5169.415570,2328.756800 5169.492029,2343.788457 5145.660464,2343.905927"/>
    <poly id="527239724" type="building" color="255,230,230" fill="1" layer="-1.00" shape="5161.987649,2423.204231 5162.290666,2410.260037 5199.696035,2411.124277 5199.393250,2424.079555 5161.987649,2423.204231"/>
    <poly id="527239726" type="building" color="255,230,230" fill="1" layer="-1.00" shape="5163.571513,2386.329704 5163.874262,2373.374423 5201.280032,2374.249765 5200.976962,2387.193954 5163.571513,2386.329704"/>
    <poly id="527239740" type="building" color="255,230,230" fill="1" layer="-1.00" shape="5915.423975,2402.902209 5916.079925,2387.464106 5958.011312,2391.047508 5956.306503,2405.746152 5915.423975,2402.902209"/>
    <poly id="527239742" type="building" color="255,230,230" fill="1" layer="-1.00" shape="5940.581133,2341.887321 5941.181394,2334.660765 5914.921850,2333.561056 5915.847933,2315.819610 5942.521415,2317.685664 5942.641355,2314.764747 5973.424311,2316.528650 5971.195832,2345.020056 5940.581133,2341.887321"/>