<?xml version="1.0" encoding="UTF-8"?>

<!-- generated on 2021-07-05 17:58:03 by Eclipse SUMO duarouter Version 1.9.1
<configuration xmlns:xsi="http://www.w3.org/2001/XMLSchema-instance" xsi:noNamespaceSchemaLocation="http://sumo.dlr.de/xsd/duarouterConfiguration.xsd">

<input>
<net-file value="v5_7.net.xml"/>
<route-files value="trips.trips.xml"/>
</input>

<output>
<output-file value="seed33Threshold11-00.rou.xml"/>
<alternatives-output value="seed33Threshold11-00.rou.alt.xml"/>
</output>

<time>
<begin value="0"/>
<end value="7200"/>
</time>

<report>
<no-warnings value="true"/>
<ignore-errors value="true"/>
<no-step-log value="true"/>
</report>
C:\Users\Louise\Sumo>python Sumo/tools/randomTrips.py -n v5_7.net.xml -r seed33Threshold11-00.rou.xml -seed 33 -b 0 -e 7200  -period 1.0 -binomial 400 -vclass passenger  -vehicle-class passe
nger -min-distance 500.0  -fringe-factor 40 -L -fringe-thres
hold 11.00 -speed-exponent 11.11 -fringe-start-attributes "colo
r=\"255,0,0\"" -trip-attributes="departLane=\"free\" departSpeed=\"random\" dep
artPos=\"random_free\" color=\"0,255,0\" length=\"4.00\" minGap=\"2.00\" maxSpee
d=\"25.00\" speedDev=\"0.1\" accel=\"2.6\" decel=\"4.5\" sigma=\"0.2\" minGapLat
=\"0.5\" laneChangeModel=\"SL2015"\""

antal fordon: 6878
v채nstersv채ngande fr책n rampen: 1338

</configuration>

***** Gallring avg책ngar t= *0.00, *2.00, *4.00, *6.00, *8.00 *****
*** Resultat efter gallring::
*** -gneE659 -gneE594 -gneE406: 344
*** -gneE659 gneE408 gneE408.17 -gneE406: 0
*** -gneE659 gneE408 gneE408.17 gneE413: 330
*** Summa fordon (vehicle id) efter gallring: 6214
-->

<routes xmlns:xsi="http://www.w3.org/2001/XMLSchema-instance" xsi:noNamespaceSchemaLocation="http://sumo.dlr.de/xsd/routes_file.xsd">
  <vType id="passenger" length="4.00" minGap="2.00" maxSpeed="25.00" speedFactor="normc(1.00,0.10,0.20,2.00)" vClass="passenger" color="green" minGapLat="0.50" laneChangeModel="SL2015" accel="2.6" decel="4.5" sigma="0.2"/>
  <vehicle id="random0" type="passenger" depart="0.00" departLane="free" departPos="random_free" departSpeed="random" color="red"> <route edges="-gneE669 gneE554 gneE555 -gneE210 gneE337 gneE343 gneE344 gneE346 gneE331 gneE332 gneE333 gneE334 gneE336 gneE210"/> </vehicle>
  <vehicle id="random1" type="passenger" depart="1.00" departLane="free" departPos="random_free" departSpeed="random" color="red"> <route edges="-gneE669 gneE554 -gneE552 -gneE142 -gneE140 -gneE137 gneE136 -gneE128 gneE656 gneE133"/> </vehicle>
  <vehicle id="random2" type="passenger" depart="1.00" departLane="free" departPos="random_free" departSpeed="random" color="red"> <route edges="-gneE657 -gneE526 gneE20 gneE444 -gneE441 -gneE440 -gneE413 gneE411"/> </vehicle>
  <vehicle id="random3" type="passenger" depart="2.00" departLane="free" departPos="random_free" departSpeed="random"> <route edges="gneE554 -gneE552 -gneE142 -gneE140 -gneE137 gneE136 -gneE128 gneE131 gneE376 gneE377 gneE378 gneE626 gneE627 gneE256 gneE257 gneE261 -gneE297 gneE290 gneE291 gneE480 gneE484"/> </vehicle>
  <vehicle id="random4" type="passenger" depart="6.00" departLane="free" departPos="random_free" departSpeed="random" color="red"> <route edges="-gneE657 -gneE526 gneE20 gneE436 gneE414 gneE594 gneE594.1 gneE659"/> </vehicle>
  <vehicle id="random6" type="passenger" depart="7.00" departLane="free" departPos="random_free" departSpeed="random" color="red"> <route edges="-gneE553 -gneE552 -gneE142 -gneE140 -gneE137 gneE136 -gneE128 gneE131 gneE376 gneE377 gneE378 gneE626 gneE627 gneE256 gneE257 gneE261 -gneE297 gneE290  gneE434 gneE425 gneE428 gneE430 gneE406 gneE594 gneE594.1 gneE659"/> </vehicle>
  <vehicle id="random8" type="passenger" depart="8.00" departLane="free" departPos="random_free" departSpeed="random" color="red"> <route edges="-gneE133 -gneE126 gneE131 gneE376 gneE377 gneE378 gneE626 gneE627 gneE394 gneE531"/> </vehicle>
  <vehicle id="random9" type="passenger" depart="8.00" departLane="free" departPos="random_free" departSpeed="random"> <route edges="-gneE26 -gneE25 gneE20 gneE436 gneE415 -gneE406 -gneE296 -gneE295 -gneE294 -gneE293 gneE480"/> </vehicle>
  <vehicle id="random10" type="passenger" depart="10.00" departLane="free" departPos="random_free" departSpeed="random"> <route edges="gneE276 gneE272 gneE271 gneE263 gneE273 gneE267 gneE268 gneE256 gneE257 gneE473 gneE671"/> </vehicle>
  <vehicle id="random13" type="passenger" depart="15.00" departLane="free" departPos="random_free" departSpeed="random" color="red"> <route edges="gneE532 -gneE394.4 gneE256 gneE257 gneE261 -gneE297 gneE290  gneE434 gneE425 gneE428 gneE430 gneE406 gneE594 gneE594.1 gneE659"/> </vehicle>
  <vehicle id="random14" type="passenger" depart="15.00" departLane="free" departPos="random_free" departSpeed="random"> <route edges="gneE343 gneE344 gneE346 gneE322 gneE311 gneE688 gneE272 gneE271 gneE263 gneE273 gneE269 gneE256 gneE257 gneE261 -gneE297 gneE290 gneE291 gneE293 gneE294 gneE295 gneE296 gneE406 gneE413 gneE440 gneE469 gneE470 gneE471 gneE443 gneE17 -gneE19 -gneE11 gneE10"/> </vehicle>
  <vehicle id="random15" type="passenger" depart="16.00" departLane="free" departPos="random_free" departSpeed="random" color="red"> <route edges="-gneE657 -gneE526 gneE20 gneE436 gneE414 gneE594 gneE594.1 gneE659"/> </vehicle>
  <vehicle id="random16" type="passenger" depart="18.00" departLane="free" departPos="random_free" departSpeed="random"> <route edges="gneE555 -gneE210 gneE337 gneE343 gneE674 gneE675"/> </vehicle>
  <vehicle id="random17" type="passenger" depart="18.00" departLane="free" departPos="random_free" departSpeed="random"> <route edges="gneE660 gneE409 -gneE406 -gneE296 -gneE295 -gneE294 -gneE293 -gneE291 -gneE290 gneE297 gneE252 gneE253 gneE396 gneE628 gneE629 gneE248 gneE374 gneE375 -gneE131 -gneE121 -gneE120"/> </vehicle>
  <vehicle id="random18" type="passenger" depart="18.00" departLane="free" departPos="random_free" departSpeed="random" color="red"> <route edges="-gneE669 gneE554 gneE555 -gneE210 gneE337 gneE343 gneE344 gneE346 gneE326"/> </vehicle>
  <vehicle id="random21" type="passenger" depart="21.00" departLane="free" departPos="random_free" departSpeed="random"> <route edges="gneE11 gneE19 gneE20 gneE436 gneE415 -gneE406 -gneE296 -gneE295 -gneE294 -gneE293 -gneE291 -gneE290 gneE297 gneE252 gneE253 gneE255 gneE262 gneE270 gneE275 gneE277 gneE675"/> </vehicle>
  <vehicle id="random22" type="passenger" depart="21.00" departLane="free" departPos="random_free" departSpeed="random" color="red"> <route edges="-gneE659 gneE408 gneE408.17 gneE413 gneE440 gneE469 gneE470 gneE471 gneE443"/> </vehicle>
  <vehicle id="random24" type="passenger" depart="23.00" departLane="free" departPos="random_free" departSpeed="random"> <route edges="gneE248 gneE374 gneE375 -gneE131 gneE128 -gneE136 gneE137 gneE140 gneE142 gneE552 gneE553"/> </vehicle>
  <vehicle id="random25" type="passenger" depart="23.00" departLane="free" departPos="random_free" departSpeed="random"> <route edges="-gneE73 -gneE72 gneE71 -gneE70 -gneE26 -gneE25 -gneE19"/> </vehicle>
  <vehicle id="random26" type="passenger" depart="24.00" departLane="free" departPos="random_free" departSpeed="random" color="red"> <route edges="-gneE10 gneE11 gneE19 gneE20 gneE436 gneE415 -gneE406 -gneE296 -gneE295 -gneE294 -gneE293 -gneE291 -gneE290 gneE297 gneE252 gneE253 gneE255 gneE394 gneE531"/> </vehicle>
  <vehicle id="random27" type="passenger" depart="25.00" departLane="free" departPos="random_free" departSpeed="random" color="red"> <route edges="-gneE659 -gneE594 -gneE406 -gneE296 -gneE295 -gneE294 -gneE293 -gneE291 -gneE290 gneE297 gneE252 gneE253 gneE255 gneE394 gneE531"/> </vehicle>
  <vehicle id="random28" type="passenger" depart="25.00" departLane="free" departPos="random_free" departSpeed="random" color="red"> <route edges="-gneE659 gneE408 gneE408.17 gneE413 gneE440 gneE469 gneE470 gneE471 gneE443 gneE17 -gneE19 -gneE11 gneE10"/> </vehicle>
  <vehicle id="random30" type="passenger" depart="27.00" departLane="free" departPos="random_free" departSpeed="random" color="red"> <route edges="-gneE133 -gneE126 gneE131 gneE376 gneE377 gneE378 gneE626 gneE627 gneE628 gneE629 gneE248 gneE374"/> </vehicle>
  <vehicle id="random32" type="passenger" depart="29.00" departLane="free" departPos="random_free" departSpeed="random"> <route edges="gneE331 gneE332 gneE333 gneE334 gneE651 gneE209 gneE191 gneE192 gneE551 gneE152 -gneE142 -gneE140 -gneE137 gneE136 -gneE128 -gneE121 -gneE120 -gneE116 -gneE115 -gneE79 -gneE73 -gneE72 gneE71 -gneE70 -gneE26 -gneE25 gneE25 gneE26 gneE70 -gneE71"/> </vehicle>
  <vehicle id="random33" type="passenger" depart="31.00" departLane="free" departPos="random_free" departSpeed="random" color="red"> <route edges="-gneE659 gneE408 gneE408.17 -gneE406 -gneE296 -gneE295 -gneE294 -gneE293 -gneE291 -gneE290 gneE297 gneE252 gneE253 gneE255 gneE262 gneE270 gneE274 gneE279 gneE320 gneE321 gneE326"/> </vehicle>
  <vehicle id="random35" type="passenger" depart="41.00" departLane="free" departPos="random_free" departSpeed="random" color="red"> <route edges="-gneE411 -gneE406 -gneE296 -gneE295 -gneE294 -gneE293 -gneE291 -gneE290 gneE297 gneE252 gneE253 gneE255 gneE394 gneE531"/> </vehicle>
  <vehicle id="random36" type="passenger" depart="41.00" departLane="free" departPos="random_free" departSpeed="random" color="red"> <route edges="-gneE10 gneE11 gneE19 gneE20 gneE444 -gneE441 -gneE440 -gneE413 gneE411"/> </vehicle>
  <vehicle id="random38" type="passenger" depart="43.00" departLane="free" departPos="random_free" departSpeed="random"> <route edges="gneE555 -gneE210 gneE337 gneE343 gneE344 gneE346 gneE322 gneE311 gneE688 gneE272 gneE271 gneE263 gneE273 gneE267"/> </vehicle>
  <vehicle id="random39" type="passenger" depart="44.00" departLane="free" departPos="random_free" departSpeed="random" color="red"> <route edges="-gneE133 -gneE126 gneE128 -gneE136 gneE137 gneE140 gneE142 gneE552 gneE555"/> </vehicle>
  <vehicle id="random40" type="passenger" depart="45.00" departLane="free" departPos="random_free" departSpeed="random" color="red"> <route edges="-gneE657 -gneE526 gneE20 gneE436 gneE415 -gneE406 -gneE296 -gneE295 -gneE294 -gneE293 -gneE291 -gneE290 gneE297 gneE252 gneE253 gneE255 gneE262 gneE270 gneE274 gneE279 gneE320 gneE321 gneE326"/> </vehicle>
  <vehicle id="random41" type="passenger" depart="45.00" departLane="free" departPos="random_free" departSpeed="random" color="red"> <route edges="gneE667 gneE327 gneE322 gneE311 gneE688 gneE272 gneE271 gneE263 gneE273 gneE269 gneE628 gneE629 gneE248 gneE374 gneE375 -gneE131 -gneE121 -gneE120 -gneE116 -gneE115 -gneE79 -gneE73 -gneE72 gneE71"/> </vehicle>
  <vehicle id="random42" type="passenger" depart="45.00" departLane="free" departPos="random_free" departSpeed="random"> <route edges="gneE321 gneE322 gneE311 gneE688 gneE272 gneE271 gneE263 gneE273 gneE267 gneE268 gneE256 gneE257 gneE473 gneE671"/> </vehicle>
  <vehicle id="random43" type="passenger" depart="48.00" departLane="free" departPos="random_free" departSpeed="random"> <route edges="gneE555 -gneE210 gneE337 gneE343 gneE344 gneE346 gneE322 gneE311 gneE688 gneE272 gneE271 gneE263 gneE273 gneE267 gneE268 gneE256 gneE257 gneE473 gneE671"/> </vehicle>
  <vehicle id="random44" type="passenger" depart="48.00" departLane="free" departPos="random_free" departSpeed="random" color="red"> <route edges="gneE412 gneE413 gneE440 gneE469 gneE470 gneE471 gneE443 gneE17 gneE526 gneE657"/> </vehicle>
  <vehicle id="random45" type="passenger" depart="50.00" departLane="free" departPos="random_free" departSpeed="random" color="red"> <route edges="-gneE10 gneE11 gneE19 gneE20 gneE436 gneE414 gneE594 gneE594.1 gneE659"/> </vehicle>
  <vehicle id="random46" type="passenger" depart="51.00" departLane="free" departPos="random_free" departSpeed="random"> <route edges="-gneE295 -gneE294 -gneE293 -gneE291 -gneE290 gneE297 gneE252 gneE253 gneE255 gneE394 gneE531"/> </vehicle>
  <vehicle id="random47" type="passenger" depart="51.00" departLane="free" departPos="random_free" departSpeed="random" color="red"> <route edges="-gneE657 -gneE526 gneE20 gneE444 -gneE441 -gneE440 -gneE413 gneE411"/> </vehicle>
  <vehicle id="random48" type="passenger" depart="52.00" departLane="free" departPos="random_free" departSpeed="random"> <route edges="-gneE526 gneE20 gneE436 gneE415 -gneE406 -gneE296 -gneE295 -gneE294 -gneE293 -gneE291 -gneE290 gneE297 gneE252 gneE253 gneE255 gneE394 gneE531"/> </vehicle>
  <vehicle id="random49" type="passenger" depart="53.00" departLane="free" departPos="random_free" departSpeed="random" color="red"> <route edges="-gneE10 gneE11 gneE19 gneE20 gneE436 gneE414 gneE594 gneE594.1 gneE659"/> </vehicle>
  <vehicle id="random51" type="passenger" depart="55.00" departLane="free" departPos="random_free" departSpeed="random" color="red"> <route edges="-gneE657 -gneE526 gneE25 gneE26 gneE70 -gneE71 gneE72 gneE73 gneE82 gneE86 gneE461 gneE463 gneE309 -gneE297 gneE290"/> </vehicle>
  <vehicle id="random52" type="passenger" depart="57.00" departLane="free" departPos="random_free" departSpeed="random"> <route edges="gneE332 gneE333 gneE334 gneE651 gneE209 gneE191 gneE192 gneE551 gneE152 -gneE142 -gneE140 -gneE137 gneE136 -gneE128 gneE131 gneE376 gneE377 gneE378 gneE626 gneE627 gneE256 gneE257 gneE261 -gneE297 gneE290  gneE434 gneE425 gneE428 gneE430 gneE406 gneE594 gneE594.1 gneE659"/> </vehicle>
  <vehicle id="random53" type="passenger" depart="58.00" departLane="free" departPos="random_free" departSpeed="random"> <route edges="gneE688 gneE272 gneE271 gneE263 gneE273 gneE269 gneE628 gneE629 gneE248 gneE374 gneE375 -gneE131 gneE128 -gneE136 gneE137 gneE140 gneE142 gneE552 gneE553"/> </vehicle>
  <vehicle id="random54" type="passenger" depart="58.00" departLane="free" departPos="random_free" departSpeed="random" color="red"> <route edges="-gneE10 gneE11 gneE19 gneE20 gneE436 gneE415 -gneE406 -gneE296 -gneE295 -gneE294 -gneE293 -gneE291 -gneE290 gneE297 gneE252 gneE253 gneE255 gneE394 gneE531"/> </vehicle>
  <vehicle id="random55" type="passenger" depart="58.00" departLane="free" departPos="random_free" departSpeed="random" color="red"> <route edges="-gneE669 gneE554 -gneE552 -gneE142 -gneE140 -gneE137 gneE136 -gneE128 gneE131 gneE376 gneE377 gneE378 gneE626 gneE627 gneE256 gneE257 gneE261 -gneE297 gneE290  gneE434 gneE425 gneE428 gneE430 gneE406 gneE594 gneE594.1 gneE659"/> </vehicle>
  <vehicle id="random57" type="passenger" depart="60.00" departLane="free" departPos="random_free" departSpeed="random"> <route edges="-gneE116 gneE117 gneE457 gneE459 gneE253 gneE255 gneE262 gneE270 gneE274 gneE279 gneE320 gneE321 gneE326"/> </vehicle>
  <vehicle id="random58" type="passenger" depart="61.00" departLane="free" departPos="random_free" departSpeed="random" color="red"> <route edges="-gneE659 gneE408 gneE408.17 -gneE406 -gneE296 -gneE295 -gneE294 -gneE293 -gneE291 -gneE290 gneE297 gneE252 gneE253 gneE255 gneE394 gneE531"/> </vehicle>
  <vehicle id="random59" type="passenger" depart="61.00" departLane="free" departPos="random_free" departSpeed="random" color="red"> <route edges="-gneE669 gneE554 -gneE552 -gneE142 -gneE140 -gneE137 gneE136 -gneE128 -gneE121 -gneE120 -gneE116 -gneE115 -gneE79 -gneE73 -gneE72 gneE71 -gneE70 -gneE26 -gneE25 gneE20 gneE444 -gneE441 -gneE440 -gneE413 gneE411"/> </vehicle>
  <vehicle id="random60" type="passenger" depart="62.00" departLane="free" departPos="random_free" departSpeed="random" color="red"> <route edges="-gneE133 -gneE126 gneE131 gneE376 gneE377 gneE378 gneE626 gneE627 gneE628 gneE629 gneE248"/> </vehicle>
  <vehicle id="random61" type="passenger" depart="64.00" departLane="free" departPos="random_free" departSpeed="random" color="red"> <route edges="-gneE133 -gneE656 -gneE121 -gneE120 -gneE116 -gneE115 -gneE79 -gneE73 -gneE72 gneE71 -gneE70 -gneE26 -gneE25 gneE20 gneE436 gneE415 -gneE406 -gneE296 -gneE295 -gneE294"/> </vehicle>
  <vehicle id="random64" type="passenger" depart="69.00" departLane="free" departPos="random_free" departSpeed="random" color="red"> <route edges="gneE532 -gneE394.4 gneE256 gneE257 gneE261 -gneE297 gneE290 gneE291 gneE293 gneE294 gneE295 gneE296 gneE406 gneE413 gneE440 gneE469 gneE470 gneE471 gneE443 gneE17 -gneE19 -gneE11 gneE10"/> </vehicle>
  <vehicle id="random65" type="passenger" depart="73.00" departLane="free" departPos="random_free" departSpeed="random" color="red"> <route edges="-gneE659 gneE408 gneE408.17 -gneE406 -gneE296 -gneE295 -gneE294 -gneE293 -gneE291 -gneE290 gneE297 gneE252 gneE253 gneE255 gneE394 gneE531"/> </vehicle>
  <vehicle id="random66" type="passenger" depart="73.00" departLane="free" departPos="random_free" departSpeed="random" color="red"> <route edges="-gneE659 -gneE594 -gneE406 -gneE296 -gneE295 -gneE294 -gneE293 -gneE291 -gneE290 gneE297 gneE252 gneE253 gneE255 gneE394 gneE531"/> </vehicle>
  <vehicle id="random68" type="passenger" depart="75.00" departLane="free" departPos="random_free" departSpeed="random" color="red"> <route edges="-gneE133 -gneE656 -gneE121 -gneE120 -gneE116 -gneE115 -gneE79 -gneE73 -gneE72 gneE71 -gneE70 -gneE26 -gneE25 -gneE19 -gneE11 gneE10"/> </vehicle>
  <vehicle id="random69" type="passenger" depart="75.00" departLane="free" departPos="random_free" departSpeed="random" color="red"> <route edges="-gneE659 -gneE594 -gneE406 -gneE296 -gneE295 -gneE294 -gneE293 -gneE291 -gneE290 gneE297 gneE252 gneE253 gneE255 gneE394 gneE531"/> </vehicle>
  <vehicle id="random71" type="passenger" depart="76.00" departLane="free" departPos="random_free" departSpeed="random" color="red"> <route edges="-gneE669 gneE554 -gneE552 -gneE142 -gneE140 -gneE137 gneE136 -gneE128 gneE656 gneE133"/> </vehicle>
  <vehicle id="random72" type="passenger" depart="78.00" departLane="free" departPos="random_free" departSpeed="random" color="red"> <route edges="-gneE657 -gneE526 gneE20 gneE436 gneE415 -gneE406 -gneE296 -gneE295 -gneE294 -gneE293 -gneE291 -gneE290 gneE297 gneE252 gneE253 gneE255 gneE394 gneE531"/> </vehicle>
  <vehicle id="random73" type="passenger" depart="79.00" departLane="free" departPos="random_free" departSpeed="random" color="red"> <route edges="-gneE669 gneE554 gneE555 -gneE210 gneE337 gneE343 gneE344 gneE346 gneE322 gneE311 gneE688 gneE272"/> </vehicle>
  <vehicle id="random74" type="passenger" depart="79.00" departLane="free" departPos="random_free" departSpeed="random"> <route edges="gneE343 gneE344 gneE346 gneE322 gneE311 gneE688 gneE272 gneE271 gneE263 gneE273 gneE269 gneE256 gneE257 gneE261 -gneE297 gneE290  gneE434 gneE425 gneE428 gneE430 gneE406 gneE594 gneE594.1 gneE659"/> </vehicle>
  <vehicle id="random76" type="passenger" depart="81.00" departLane="free" departPos="random_free" departSpeed="random" color="red"> <route edges="-gneE669 gneE554 -gneE552 -gneE142 -gneE140 -gneE137 gneE136 -gneE128 -gneE121 -gneE120 -gneE116 -gneE115 -gneE79 -gneE73 -gneE72 gneE71 -gneE70 -gneE26 -gneE25 gneE526 gneE657"/> </vehicle>
  <vehicle id="random77" type="passenger" depart="82.00" departLane="free" departPos="random_free" departSpeed="random"> <route edges="-gneE136 gneE137 gneE140 gneE142 gneE552 gneE555 -gneE210 gneE337 gneE343 gneE344 gneE346 gneE322 gneE311 gneE688 gneE272 gneE271 gneE263 gneE273 gneE269 gneE256 gneE257 gneE261 -gneE297 gneE290 gneE291 gneE480"/> </vehicle>
  <vehicle id="random78" type="passenger" depart="83.00" departLane="free" departPos="random_free" departSpeed="random" color="red"> <route edges="-gneE659 gneE408 gneE408.17 gneE413 gneE440 gneE469 gneE470 gneE471 gneE443 gneE17 gneE25 gneE26 gneE70 -gneE71 gneE72 gneE73 gneE79 gneE115 gneE116 gneE120 gneE121 gneE128 -gneE136 gneE137 gneE140 gneE142 gneE145 gneE147 gneE172 gneE189 gneE669"/> </vehicle>
  <vehicle id="random79" type="passenger" depart="83.00" departLane="free" departPos="random_free" departSpeed="random"> <route edges="-gneE210 gneE337 gneE343 gneE344 gneE346 gneE322 gneE311 gneE688 gneE272 gneE271 gneE263 gneE273 gneE269 gneE256 gneE257 gneE261 -gneE297 gneE290  gneE434 gneE425 gneE428 gneE430 gneE406 gneE594 gneE594.1 gneE659"/> </vehicle>
  <vehicle id="random80" type="passenger" depart="84.00" departLane="free" departPos="random_free" departSpeed="random"> <route edges="gneE253 gneE255 gneE256 gneE257 gneE261 -gneE297 gneE290  gneE434 gneE425 gneE428 gneE430 gneE406 gneE594 gneE594.1 gneE659"/> </vehicle>
  <vehicle id="random81" type="passenger" depart="85.00" departLane="free" departPos="random_free" departSpeed="random" color="red"> <route edges="-gneE669 gneE554 -gneE552 -gneE142 -gneE140 -gneE137 gneE136 -gneE128 gneE131 gneE376 gneE377 gneE378 gneE626 gneE627 gneE394 gneE531"/> </vehicle>
  <vehicle id="random82" type="passenger" depart="87.00" departLane="free" departPos="random_free" departSpeed="random" color="red"> <route edges="-gneE659 gneE408 gneE408.17 -gneE406 -gneE296 -gneE295 -gneE294 -gneE293 -gneE291 -gneE290 gneE297 gneE252 gneE253 gneE255 gneE262 gneE270 gneE274 gneE279 gneE320 gneE321 gneE331 gneE332 gneE333 gneE334 gneE336 gneE210 -gneE555"/> </vehicle>
  <vehicle id="random83" type="passenger" depart="87.00" departLane="free" departPos="random_free" departSpeed="random" color="red"> <route edges="-gneE659 gneE408 gneE408.17 gneE413 gneE440 gneE469 gneE470 gneE471 gneE443 gneE17 gneE25 gneE26 gneE70 -gneE71 gneE72 gneE73 gneE79 gneE115 gneE116 gneE120 gneE121 gneE128 -gneE136 gneE137 gneE140 gneE142 gneE145 gneE147 gneE172 gneE189 gneE669"/> </vehicle>
  <vehicle id="random84" type="passenger" depart="88.00" departLane="free" departPos="random_free" departSpeed="random" color="red"> <route edges="-gneE10 gneE11 gneE19 gneE25 gneE26 gneE70 -gneE71 gneE72 gneE73 gneE79 gneE115 gneE116 gneE120 gneE121 gneE128 -gneE136 gneE137 gneE140 gneE142 gneE145 gneE147 gneE172 gneE189 gneE669"/> </vehicle>
  <vehicle id="random85" type="passenger" depart="89.00" departLane="free" departPos="random_free" departSpeed="random" color="red"> <route edges="-gneE411 -gneE406 -gneE296 -gneE295 -gneE294 -gneE293 -gneE291 -gneE290 gneE297 gneE252 gneE253 gneE255 gneE262 gneE270 gneE274 gneE279 gneE320 gneE240 -gneE239 gneE229 gneE232 gneE152 -gneE142"/> </vehicle>
  <vehicle id="random87" type="passenger" depart="90.00" departLane="free" departPos="random_free" departSpeed="random" color="red"> <route edges="-gneE669 gneE554 gneE555 -gneE210 gneE337 gneE343 gneE674 gneE675"/> </vehicle>
  <vehicle id="random88" type="passenger" depart="90.00" departLane="free" departPos="random_free" departSpeed="random" color="red"> <route edges="-gneE669 gneE554 -gneE552 -gneE142 -gneE140 -gneE137 gneE136 -gneE128 -gneE121 -gneE120 -gneE116 -gneE115 -gneE79 -gneE73 -gneE72 gneE71 -gneE70 -gneE26 -gneE25 gneE20 gneE444 -gneE441 -gneE440 -gneE413 gneE411"/> </vehicle>
  <vehicle id="random89" type="passenger" depart="90.00" departLane="free" departPos="random_free" departSpeed="random"> <route edges="gneE256 gneE257 gneE261 gneE310 -gneE310 gneE252 gneE253 gneE396 gneE628 gneE629 gneE248 gneE374 gneE375 -gneE131 gneE128 -gneE136 gneE137 gneE140 gneE142 gneE145 gneE147 gneE172 gneE189 gneE669"/> </vehicle>
  <vehicle id="random90" type="passenger" depart="91.00" departLane="free" departPos="random_free" departSpeed="random"> <route edges="-gneE394.4 gneE256 gneE257 gneE261 -gneE297 gneE290  gneE434 gneE425 gneE428 gneE430 gneE406 gneE594 gneE594.1 gneE659"/> </vehicle>
  <vehicle id="random92" type="passenger" depart="92.00" departLane="free" departPos="random_free" departSpeed="random" color="red"> <route edges="-gneE657 -gneE526 gneE20 gneE444 -gneE441 -gneE440 -gneE413 gneE411"/> </vehicle>
  <vehicle id="random93" type="passenger" depart="93.00" departLane="free" departPos="random_free" departSpeed="random" color="red"> <route edges="gneE667 gneE327 gneE322 gneE311 gneE688 gneE272 gneE271 gneE263 gneE273 gneE267 gneE268 gneE256 gneE257 gneE473 gneE671"/> </vehicle>
  <vehicle id="random94" type="passenger" depart="95.00" departLane="free" departPos="random_free" departSpeed="random" color="red"> <route edges="-gneE133 -gneE126 gneE131 gneE376 gneE377 gneE378 gneE626 gneE627 gneE394 gneE531"/> </vehicle>
  <vehicle id="random95" type="passenger" depart="95.00" departLane="free" departPos="random_free" departSpeed="random" color="red"> <route edges="-gneE411 -gneE406 -gneE296 -gneE295 -gneE294 -gneE293 -gneE291 -gneE290 gneE297 gneE252 gneE253 gneE396 gneE628 gneE629 gneE248 gneE374 gneE375 -gneE131 gneE128 -gneE136 gneE137 gneE140 gneE142 gneE145 gneE147 gneE172 gneE189 gneE669"/> </vehicle>
  <vehicle id="random96" type="passenger" depart="96.00" departLane="free" departPos="random_free" departSpeed="random"> <route edges="gneE443 gneE17 gneE25 gneE26 gneE70 -gneE71 gneE72 gneE73"/> </vehicle>
  <vehicle id="random97" type="passenger" depart="97.00" departLane="free" departPos="random_free" departSpeed="random" color="red"> <route edges="-gneE659 gneE408 gneE408.17 gneE413 gneE440 gneE469 gneE470 gneE471 gneE443 gneE17 gneE25 gneE26 gneE70 -gneE71 gneE72 gneE73 gneE79 gneE115 gneE116 gneE120 gneE121 gneE656 gneE133"/> </vehicle>
  <vehicle id="random98" type="passenger" depart="97.00" departLane="free" departPos="random_free" departSpeed="random" color="red"> <route edges="-gneE657 -gneE526 gneE20 gneE436 gneE414 gneE594 gneE594.1 gneE659"/> </vehicle>
  <vehicle id="random99" type="passenger" depart="99.00" departLane="free" departPos="random_free" departSpeed="random" color="red"> <route edges="gneE667 gneE327 gneE322 gneE311 gneE688 gneE272 gneE271 gneE263 gneE273 gneE267 gneE268 gneE256 gneE257 gneE473 gneE671"/> </vehicle>
  <vehicle id="random100" type="passenger" depart="99.00" departLane="free" departPos="random_free" departSpeed="random" color="red"> <route edges="gneE667 gneE327 gneE322 gneE311 gneE688 gneE272 gneE271 gneE263 gneE273 gneE267 gneE268 gneE256 gneE257 gneE473 gneE671"/> </vehicle>
  <vehicle id="random101" type="passenger" depart="101.00" departLane="free" departPos="random_free" departSpeed="random" color="red"> <route edges="-gneE411 -gneE406 -gneE296 -gneE295 -gneE294 -gneE293 -gneE291 -gneE290 gneE297 gneE252 gneE253 gneE255 gneE394 gneE531"/> </vehicle>
  <vehicle id="random102" type="passenger" depart="101.00" departLane="free" departPos="random_free" departSpeed="random"> <route edges="gneE131 gneE376 gneE377 gneE378 gneE626 gneE627 gneE256 gneE257 gneE261 -gneE297 gneE290  gneE434 gneE425 gneE428 gneE430 gneE406 gneE594 gneE594.1 gneE659"/> </vehicle>
  <vehicle id="random103" type="passenger" depart="101.00" departLane="free" departPos="random_free" departSpeed="random" color="red"> <route edges="-gneE411 -gneE406 -gneE296 -gneE295 -gneE294 -gneE293 -gneE291 -gneE290 gneE297 gneE252 gneE253 gneE255 gneE394 gneE531"/> </vehicle>
  <vehicle id="random104" type="passenger" depart="101.00" departLane="free" departPos="random_free" departSpeed="random"> <route edges="-gneE128 gneE131 gneE376 gneE377 gneE378 gneE626 gneE627 gneE394 gneE531"/> </vehicle>
  <vehicle id="random105" type="passenger" depart="102.00" departLane="free" departPos="random_free" departSpeed="random" color="red"> <route edges="-gneE553 -gneE552 -gneE142 -gneE140 -gneE137 gneE136 -gneE128 -gneE121 -gneE120 -gneE116 -gneE115 -gneE79 -gneE73 -gneE72 gneE71 -gneE70 -gneE26 -gneE25 -gneE19 -gneE11 gneE450 gneE449 gneE454 gneE447 gneE470"/> </vehicle>
  <vehicle id="random106" type="passenger" depart="103.00" departLane="free" departPos="random_free" departSpeed="random" color="red"> <route edges="-gneE411 -gneE406 -gneE296 -gneE295 -gneE294 -gneE293 -gneE291 -gneE290 gneE297 gneE252 gneE253 gneE396 gneE628 gneE629 gneE248 gneE374 gneE375 -gneE131 gneE128 -gneE136 gneE137 gneE140 gneE142 gneE552 gneE555"/> </vehicle>
  <vehicle id="random107" type="passenger" depart="103.00" departLane="free" departPos="random_free" departSpeed="random" color="red"> <route edges="-gneE411 -gneE406 -gneE296 -gneE295 -gneE294 -gneE293 -gneE291 -gneE290 gneE297 gneE252 -gneE459 -gneE457 -gneE117 -gneE115 -gneE79 gneE79 gneE115 gneE116 gneE120 gneE121 gneE131 gneE376 gneE377 gneE378 gneE626"/> </vehicle>
  <vehicle id="random108" type="passenger" depart="106.00" departLane="free" departPos="random_free" departSpeed="random"> <route edges="-gneE210 gneE337 gneE343 gneE344 gneE346 gneE331 gneE332 gneE333 gneE334 gneE336 gneE210 -gneE555 -gneE554 gneE669"/> </vehicle>
  <vehicle id="random109" type="passenger" depart="106.00" departLane="free" departPos="random_free" departSpeed="random" color="red"> <route edges="-gneE10 gneE11 gneE19 gneE20 gneE436 gneE414 gneE594 gneE594.1 gneE659"/> </vehicle>
  <vehicle id="random110" type="passenger" depart="107.00" departLane="free" departPos="random_free" departSpeed="random" color="red"> <route edges="-gneE133 -gneE126 gneE131 gneE376 gneE377 gneE378 gneE626 gneE627 gneE394 gneE531"/> </vehicle>
  <vehicle id="random111" type="passenger" depart="109.00" departLane="free" departPos="random_free" departSpeed="random"> <route edges="-gneE296 -gneE295 -gneE294 -gneE293 -gneE291 -gneE290 gneE297 gneE252 gneE253 gneE396 gneE628 gneE629 gneE248 gneE374 gneE375 -gneE131 gneE128 -gneE136 gneE137 gneE140 gneE142 gneE552 gneE555 -gneE210"/> </vehicle>
  <vehicle id="random112" type="passenger" depart="110.00" departLane="free" departPos="random_free" departSpeed="random" color="red"> <route edges="-gneE411 -gneE406 -gneE296 -gneE295 -gneE294 -gneE293 -gneE291 -gneE290 gneE297 gneE252 gneE253 gneE255 gneE262 gneE270 gneE274 gneE279 gneE320 gneE321 gneE326"/> </vehicle>
  <vehicle id="random113" type="passenger" depart="110.00" departLane="free" departPos="random_free" departSpeed="random"> <route edges="gneE131 gneE376 gneE377 gneE378 gneE626 gneE627 gneE256 gneE257 gneE261 -gneE297 gneE290 gneE291 gneE293 gneE294 gneE295 gneE296 gneE406 gneE411"/> </vehicle>