<?xml version="1.0" encoding="UTF-8"?>

<!-- generated on 2021-07-05 20:16:48 by Eclipse SUMO duarouter Version 1.9.1
<configuration xmlns:xsi="http://www.w3.org/2001/XMLSchema-instance" xsi:noNamespaceSchemaLocation="http://sumo.dlr.de/xsd/duarouterConfiguration.xsd">

  <input>
    <net-file value="v5_7.net.xml"/>
    <route-files value="trips.trips.xml"/>
  </input>

  <output>
    <output-file value="seed66Threshold11-00.rou.xml"/>
    <alternatives-output value="seed66Threshold11-00.rou.alt.xml"/>
  </output>

  <time>
    <begin value="0"/>
    <end value="7200"/>
  </time>

  <report>
    <no-warnings value="true"/>
    <ignore-errors value="true"/>
    <no-step-log value="true"/>
  </report>

</configuration>

***** Gallring avgångar t= *0.00, *2.00, *4.00, *6.00, *8.00 *****
*** Resultat efter gallring::
*** -gneE659 -gneE594 -gneE406: 354
*** -gneE659 gneE408 gneE408.17 -gneE406: 0
*** -gneE659 gneE408 gneE408.17 gneE413: 337
*** Summa fordon (vehicle id) efter gallring: 6149
*** Flyttat fordon med id som slutar på 2 & 7 från ruter med -gneE659 -gneE594 -gneE406 till rut med -gneE659 gneE408 gneE408.17 -gneE406
*** Fordon från S3 öst, gneE268, svänger höger i gneE473.
-->

<routes xmlns:xsi="http://www.w3.org/2001/XMLSchema-instance" xsi:noNamespaceSchemaLocation="http://sumo.dlr.de/xsd/routes_file.xsd">
  <vType id="passenger" length="4.00" minGap="2.00" maxSpeed="25.00" speedFactor="normc(1.00,0.10,0.20,2.00)" vClass="passenger" minGapLat="0.50" laneChangeModel="SL2015" accel="2.6" decel="4.5" sigma="0.2"/>
    <vehicle id="random0" type="passenger" depart="5.00" departLane="free" departPos="random_free" departSpeed="random" color="red"> <route edges="-gneE411 -gneE406 -gneE296 -gneE295 -gneE294 -gneE293 -gneE291 -gneE290 gneE297 gneE252 gneE253 gneE255 gneE394 gneE531"/> </vehicle>
    <vehicle id="random1" type="passenger" depart="6.00" departLane="free" departPos="random_free" departSpeed="random" color="red"> <route edges="-gneE669 gneE554 -gneE552 -gneE142 -gneE140 -gneE137 gneE136 -gneE128 -gneE121 -gneE120 -gneE116 -gneE115 -gneE79 -gneE73 -gneE72 gneE71 -gneE70 -gneE26 -gneE25 -gneE19"/> </vehicle>
    <vehicle id="random2" type="passenger" depart="6.00" departLane="free" departPos="random_free" departSpeed="random"> <route edges="gneE343 gneE344 gneE346 gneE322 gneE311 gneE688 gneE272 gneE271 gneE263 gneE273 gneE269 gneE256 gneE257 gneE261 -gneE297 gneE290  gneE434 gneE425 gneE428 gneE430 gneE406 gneE594 gneE594.1 gneE659"/> </vehicle>
    <vehicle id="random3" type="passenger" depart="7.00" departLane="free" departPos="random_free" departSpeed="random"> <route edges="gneE136 -gneE128 -gneE121 -gneE120 -gneE116 -gneE115 -gneE79 gneE79 gneE115 gneE116 gneE120 gneE121 gneE128 -gneE136 gneE137 gneE140 gneE142 gneE552 gneE553"/> </vehicle>
    <vehicle id="random4" type="passenger" depart="11.00" departLane="free" departPos="random_free" departSpeed="random" color="red"> <route edges="-gneE411 -gneE406 -gneE296 -gneE295 -gneE294 -gneE293 -gneE291 -gneE290 gneE297 gneE252 gneE253 gneE255 gneE394 gneE531"/> </vehicle>
    <vehicle id="random5" type="passenger" depart="11.00" departLane="free" departPos="random_free" departSpeed="random" color="red"> <route edges="-gneE659 -gneE594 -gneE406 -gneE296 -gneE295 -gneE294 -gneE293 -gneE291 -gneE290 gneE297 gneE252 gneE253 gneE255 gneE394 gneE531"/> </vehicle>
    <vehicle id="random6" type="passenger" depart="13.00" departLane="free" departPos="random_free" departSpeed="random"> <route edges="gneE629 gneE248 gneE374 gneE375 -gneE131 -gneE121 -gneE120 -gneE116 -gneE115 -gneE79 -gneE73 -gneE72 gneE71 -gneE70 -gneE26 -gneE25 -gneE19 -gneE11 gneE10"/> </vehicle>
    <vehicle id="random7" type="passenger" depart="15.00" departLane="free" departPos="random_free" departSpeed="random" color="red"> <route edges="-gneE669 gneE554 -gneE552 -gneE142 -gneE140 -gneE137 gneE136 -gneE128 gneE131 gneE376 gneE377 gneE378 gneE626 gneE627 gneE256 gneE257 gneE261 -gneE297 gneE290 gneE434 gneE425 gneE428 gneE430 gneE406 gneE594 gneE594.1 gneE659"/> </vehicle>
    <vehicle id="random8" type="passenger" depart="16.00" departLane="free" departPos="random_free" departSpeed="random" color="red"> <route edges="gneE667 gneE327 gneE322 gneE311 gneE688 gneE272 gneE271 gneE263 gneE273 gneE269 gneE256 gneE257 gneE261 -gneE297 gneE290 gneE291 gneE293 gneE294 gneE295 gneE296 gneE406 gneE413 gneE440 gneE469 gneE470 gneE471 gneE443 gneE17 -gneE19 -gneE11 gneE10"/> </vehicle>
    <vehicle id="random9" type="passenger" depart="17.00" departLane="free" departPos="random_free" departSpeed="random"> <route edges="gneE470 gneE471 gneE443 gneE17 gneE20 gneE436 gneE415 -gneE406 -gneE296 -gneE295 -gneE294 -gneE293 -gneE291 -gneE290 gneE297 gneE252 gneE253 gneE255 gneE394 gneE531"/> </vehicle>
    <vehicle id="random10" type="passenger" depart="17.00" departLane="free" departPos="random_free" departSpeed="random" color="red"> <route edges="-gneE669 gneE554 -gneE552 -gneE142 -gneE140 -gneE137 gneE136 -gneE128 gneE131 gneE376 gneE377 gneE378 gneE626 gneE627 gneE256 gneE257 gneE261 -gneE297 gneE290 gneE291 gneE293 gneE294 gneE295 gneE296 gneE406 gneE411"/> </vehicle>
    <vehicle id="random11" type="passenger" depart="18.00" departLane="free" departPos="random_free" departSpeed="random"> <route edges="gneE263 gneE273 gneE269 gneE256 gneE257 gneE261 -gneE297 gneE290 gneE291 gneE293 gneE294 gneE295 gneE296 gneE406 gneE413 gneE440 gneE469 gneE470 gneE471 gneE443 gneE17 gneE526 gneE657"/> </vehicle>
    <vehicle id="random12" type="passenger" depart="19.00" departLane="free" departPos="random_free" departSpeed="random" color="red"> <route edges="-gneE133 -gneE126 gneE128 -gneE136 gneE137 gneE140 gneE142 gneE552 gneE553"/> </vehicle>
    <vehicle id="random13" type="passenger" depart="20.00" departLane="free" departPos="random_free" departSpeed="random"> <route edges="gneE337 gneE343 gneE344 gneE346 gneE322 gneE311 gneE688 gneE272 gneE271 gneE263 gneE273 gneE269 gneE256 gneE257 gneE261 -gneE297 gneE290 gneE291 gneE293 gneE294 gneE295 gneE296 gneE406 gneE413 gneE440 gneE469 gneE470 gneE471 gneE443 gneE17 gneE526 gneE657"/> </vehicle>
    <vehicle id="random14" type="passenger" depart="20.00" departLane="free" departPos="random_free" departSpeed="random" color="red"> <route edges="-gneE669 gneE554 -gneE552 -gneE142 -gneE140 -gneE137 gneE136 -gneE128 gneE131 gneE376 gneE377 gneE378 gneE626 gneE627 gneE256 gneE257 gneE261 -gneE297 gneE290 gneE434 gneE425 gneE428 gneE430 gneE406 gneE594 gneE594.1 gneE659"/> </vehicle>
    <vehicle id="random15" type="passenger" depart="21.00" departLane="free" departPos="random_free" departSpeed="random"> <route edges="gneE140 gneE142 gneE552 gneE555 -gneE210 gneE337 gneE343 gneE344 gneE346 gneE322 gneE311 gneE688 gneE272 gneE271 gneE263 gneE273 gneE269 gneE256 gneE257 gneE261 -gneE297 gneE290  gneE434 gneE425 gneE428 gneE430 gneE406 gneE594 gneE594.1 gneE659"/> </vehicle>
    <vehicle id="random16" type="passenger" depart="21.00" departLane="free" departPos="random_free" departSpeed="random"> <route edges="gneE470 gneE471 gneE443 gneE17 gneE526 gneE657"/> </vehicle>
    <vehicle id="random17" type="passenger" depart="22.00" departLane="free" departPos="random_free" departSpeed="random" color="red"> <route edges="-gneE675 -gneE277 gneE276 gneE272 gneE271 gneE263 gneE273 gneE267 gneE268 gneE256 gneE257 gneE473 gneE671"/> </vehicle>
    <vehicle id="random18" type="passenger" depart="23.00" departLane="free" departPos="random_free" departSpeed="random" color="red"> <route edges="-gneE659 -gneE594 -gneE406 -gneE296 -gneE295 -gneE294 -gneE293 -gneE291 -gneE290 gneE297 gneE252 gneE253 gneE255 gneE394 gneE531"/> </vehicle>
    <vehicle id="random19" type="passenger" depart="24.00" departLane="free" departPos="random_free" departSpeed="random"> <route edges="gneE337 gneE343 gneE344 gneE346 gneE322 gneE311 gneE688 gneE272 gneE271 gneE263 gneE273 gneE267 gneE268 gneE256 gneE257 gneE473 gneE671"/> </vehicle>
    <vehicle id="random20" type="passenger" depart="25.00" departLane="free" departPos="random_free" departSpeed="random"> <route edges="gneE11 gneE19 gneE25 gneE26 gneE70 -gneE71 gneE72 gneE73 gneE79 gneE115 gneE116 gneE120 gneE121 gneE128 -gneE136 gneE137 gneE140 gneE142 gneE552 gneE555"/> </vehicle>
    <vehicle id="random21" type="passenger" depart="26.00" departLane="free" departPos="random_free" departSpeed="random"> <route edges="gneE555 -gneE210 gneE337 gneE343 gneE344 gneE346 gneE322 gneE311 gneE688 gneE272 gneE271"/> </vehicle>
    <vehicle id="random23" type="passenger" depart="27.00" departLane="free" departPos="random_free" departSpeed="random" color="red"> <route edges="-gneE657 -gneE526 gneE20 gneE436 gneE414 gneE594 gneE594.1 gneE659"/> </vehicle>
    <vehicle id="random24" type="passenger" depart="27.00" departLane="free" departPos="random_free" departSpeed="random"> <route edges="-gneE25 gneE20 gneE436 gneE415 -gneE406 -gneE296 -gneE295 -gneE294 -gneE293 -gneE291 -gneE290 gneE297 gneE252 gneE253 gneE396 gneE628 gneE629 gneE248"/> </vehicle>
    <vehicle id="random25" type="passenger" depart="27.00" departLane="free" departPos="random_free" departSpeed="random" color="red"> <route edges="-gneE411 -gneE406 -gneE296 -gneE295 -gneE294 -gneE293 -gneE291 -gneE290 gneE297 gneE252 gneE253 gneE255 gneE262 gneE270 gneE274 gneE279 gneE320 gneE321 gneE326"/> </vehicle>
    <vehicle id="random26" type="passenger" depart="28.00" departLane="free" departPos="random_free" departSpeed="random" color="red"> <route edges="-gneE553 -gneE552 -gneE142 -gneE140 -gneE137 gneE136 -gneE128 gneE131 gneE376 gneE377 gneE378 gneE626 gneE627 gneE256 gneE257 gneE261 -gneE297 gneE290 gneE291 gneE480 gneE484"/> </vehicle>
    <vehicle id="random27" type="passenger" depart="29.00" departLane="free" departPos="random_free" departSpeed="random" color="red"> <route edges="-gneE659 gneE408 gneE408.17 gneE413 gneE440 gneE469 gneE470 gneE471 gneE443 gneE17 gneE25 gneE26 gneE70 -gneE71 gneE72 gneE73 gneE79 gneE115 gneE116 gneE120 gneE121 gneE128 -gneE136 gneE137 gneE140 gneE142 gneE552 gneE555"/> </vehicle>
    <vehicle id="random28" type="passenger" depart="29.00" departLane="free" departPos="random_free" departSpeed="random" color="red"> <route edges="-gneE675 -gneE277 gneE276 gneE272 gneE271 gneE263 gneE273 gneE269 gneE262 gneE270 gneE274 gneE279 gneE320 gneE321 gneE331 gneE332 gneE333 gneE334 gneE336 gneE210 -gneE555 -gneE554 gneE669"/> </vehicle>
    <vehicle id="random30" type="passenger" depart="30.00" departLane="free" departPos="random_free" departSpeed="random" color="red"> <route edges="-gneE553 -gneE552 -gneE142 -gneE140 -gneE137 gneE136 -gneE128 -gneE121 -gneE120 -gneE116 -gneE115 -gneE79 -gneE73 -gneE72 gneE71 -gneE70 -gneE26 -gneE25 gneE20 gneE444 -gneE441 -gneE440 -gneE413 gneE411"/> </vehicle>
    <vehicle id="random31" type="passenger" depart="30.00" departLane="free" departPos="random_free" departSpeed="random" color="red"> <route edges="-gneE411 -gneE406 -gneE296 -gneE295 -gneE294 -gneE293 -gneE291 -gneE290 gneE297 gneE252 gneE253 gneE255 gneE394 gneE531"/> </vehicle>
    <vehicle id="random32" type="passenger" depart="31.00" departLane="free" departPos="random_free" departSpeed="random" color="red"> <route edges="-gneE553 -gneE552 -gneE142 -gneE140 -gneE137 gneE136 -gneE128 gneE131 gneE376 gneE377 gneE378 gneE626 gneE627 gneE256 gneE257 gneE261 -gneE297 gneE290 gneE434 gneE425 gneE428 gneE430 gneE406 gneE594 gneE594.1 gneE659"/> </vehicle>
    <vehicle id="random33" type="passenger" depart="33.00" departLane="free" departPos="random_free" departSpeed="random" color="red"> <route edges="-gneE10 gneE11 gneE19 gneE25 gneE26 gneE70 -gneE71 gneE72 gneE73 gneE79 gneE115 gneE116 gneE120 gneE121 gneE128 -gneE136 gneE137 gneE140 gneE142 gneE552 gneE555 -gneE210 gneE337"/> </vehicle>
    <vehicle id="random34" type="passenger" depart="34.00" departLane="free" departPos="random_free" departSpeed="random" color="red"> <route edges="-gneE657 -gneE526 gneE20 gneE436 gneE415 -gneE406 -gneE296 -gneE295 -gneE294 -gneE293 -gneE291 -gneE290 gneE297 gneE252 gneE253 gneE255 gneE262 gneE270 gneE274 gneE279 gneE320 gneE321 gneE326"/> </vehicle>
    <vehicle id="random35" type="passenger" depart="36.00" departLane="free" departPos="random_free" departSpeed="random"> <route edges="gneE272 gneE271 gneE263 gneE273 gneE269 gneE256 gneE257 gneE261 -gneE297 gneE290 gneE291 gneE293 gneE294 gneE295 gneE296 gneE406 gneE411"/> </vehicle>
    <vehicle id="random37" type="passenger" depart="39.00" departLane="free" departPos="random_free" departSpeed="random" color="red"> <route edges="-gneE553 -gneE552 -gneE142 -gneE140 -gneE137 gneE136 -gneE128 gneE131 gneE376 gneE377 gneE378 gneE626 gneE627 gneE394 gneE531"/> </vehicle>
    <vehicle id="random38" type="passenger" depart="39.00" departLane="free" departPos="random_free" departSpeed="random" color="red"> <route edges="-gneE659 gneE408 gneE408.17 gneE413 gneE440 gneE469 gneE470 gneE471 gneE443 gneE17 gneE25 gneE26 gneE70 -gneE71 gneE72 gneE73 gneE79 gneE115 gneE116 gneE120 gneE121 gneE128 -gneE136 gneE137 gneE140 gneE142 gneE552 gneE553"/> </vehicle>
    <vehicle id="random39" type="passenger" depart="40.00" departLane="free" departPos="random_free" departSpeed="random"> <route edges="gneE72 gneE73 gneE79 gneE115 gneE116 gneE120 gneE121 gneE131 gneE376 gneE377 gneE378 gneE626 gneE627 gneE394 gneE531"/> </vehicle>
    <vehicle id="random40" type="passenger" depart="45.00" departLane="free" departPos="random_free" departSpeed="random" color="red"> <route edges="-gneE411 -gneE406 -gneE296 -gneE295 -gneE294 -gneE293 -gneE291 -gneE290 gneE297 gneE252 gneE253 gneE255 gneE394 gneE531"/> </vehicle>
    <vehicle id="random41" type="passenger" depart="45.00" departLane="free" departPos="random_free" departSpeed="random" color="red"> <route edges="-gneE669 gneE554 -gneE552 -gneE142 -gneE140 -gneE137 gneE136 -gneE128 -gneE121 -gneE120 -gneE116 -gneE115 -gneE79 -gneE73 -gneE72 gneE71 -gneE70 -gneE26 -gneE25 gneE20 gneE444 -gneE441 -gneE440 -gneE413 gneE411"/> </vehicle>
    <vehicle id="random42" type="passenger" depart="46.00" departLane="free" departPos="random_free" departSpeed="random" color="red"> <route edges="-gneE10 gneE11 gneE19 gneE25 gneE26 gneE70 -gneE71 gneE72 gneE73 gneE82 gneE86 gneE461 gneE464 gneE465 -gneE457 -gneE117 -gneE115 -gneE79"/> </vehicle>
    <vehicle id="random43" type="passenger" depart="48.00" departLane="free" departPos="random_free" departSpeed="random"> <route edges="-gneE210 gneE337 gneE343 gneE344 gneE346 gneE322 gneE311 gneE688 gneE272 gneE271 gneE263 gneE273 gneE269 gneE256 gneE257 gneE261 -gneE297 gneE290  gneE434 gneE425 gneE428 gneE430 gneE406 gneE594 gneE594.1 gneE659"/> </vehicle>
    <vehicle id="random44" type="passenger" depart="49.00" departLane="free" departPos="random_free" departSpeed="random"> <route edges="gneE660 gneE409 -gneE406 -gneE296 -gneE295 -gneE294 -gneE293 -gneE291 -gneE290 gneE297 gneE252 gneE253 gneE255 gneE394 gneE531"/> </vehicle>
    <vehicle id="random46" type="passenger" depart="52.00" departLane="free" departPos="random_free" departSpeed="random" color="red"> <route edges="-gneE10 gneE11 gneE19 gneE20 gneE436 gneE415 -gneE406 -gneE296 -gneE295 -gneE294 -gneE293 -gneE291 -gneE290 gneE297 gneE252 gneE253 gneE255 gneE262 gneE270 gneE274 gneE279 gneE320 gneE321 gneE326"/> </vehicle>
    <vehicle id="random47" type="passenger" depart="52.00" departLane="free" departPos="random_free" departSpeed="random" color="red"> <route edges="-gneE133 -gneE656 -gneE121 -gneE120 -gneE116 -gneE115 -gneE79 -gneE73 -gneE72 gneE71 -gneE70 -gneE26 -gneE25 -gneE19 -gneE11 gneE10"/> </vehicle>
    <vehicle id="random48" type="passenger" depart="54.00" departLane="free" departPos="random_free" departSpeed="random" color="red"> <route edges="-gneE669 gneE554 -gneE552 -gneE142 -gneE140 -gneE137 gneE136 -gneE128 gneE131 gneE376 gneE377 gneE378 gneE626 gneE627 gneE394 gneE531"/> </vehicle>
    <vehicle id="random50" type="passenger" depart="55.00" departLane="free" departPos="random_free" departSpeed="random"> <route edges="-gneE293 -gneE291 -gneE290 gneE297 gneE252 gneE253 gneE255 gneE394 gneE531"/> </vehicle>
    <vehicle id="random51" type="passenger" depart="57.00" departLane="free" departPos="random_free" departSpeed="random" color="red"> <route edges="-gneE553 -gneE552 -gneE142 -gneE140 -gneE137 gneE136 -gneE128 gneE131 gneE376 gneE377 gneE378 gneE626 gneE627 gneE256 gneE257 gneE261 -gneE297 gneE290 gneE434 gneE425 gneE428 gneE430 gneE406 gneE594 gneE594.1 gneE659"/> </vehicle>
    <vehicle id="random52" type="passenger" depart="57.00" departLane="free" departPos="random_free" departSpeed="random"> <route edges="gneE73 -gneE73 -gneE72 gneE71 -gneE70 -gneE26 -gneE25 gneE20 gneE436 gneE414 gneE594 gneE594.1 gneE659"/> </vehicle>
    <vehicle id="random55" type="passenger" depart="61.00" departLane="free" departPos="random_free" departSpeed="random" color="red"> <route edges="-gneE659 -gneE594 -gneE406 -gneE296 -gneE295 -gneE294 -gneE293 -gneE291 -gneE290 gneE297 gneE252 gneE253 gneE255 gneE394 gneE531"/> </vehicle>
    <vehicle id="random57" type="passenger" depart="66.00" departLane="free" departPos="random_free" departSpeed="random" color="red"> <route edges="-gneE411 -gneE406 -gneE296 -gneE295 -gneE294 -gneE293 -gneE291 -gneE290 gneE297 gneE252 gneE253 gneE255 gneE262 gneE270 gneE274 gneE279 gneE320 gneE321 gneE331 gneE332 gneE333 gneE334 gneE336"/> </vehicle>
    <vehicle id="random58" type="passenger" depart="66.00" departLane="free" departPos="random_free" departSpeed="random" color="red"> <route edges="gneE412 gneE413 gneE440 gneE469 gneE470 gneE471 gneE443 gneE17 gneE526 gneE657"/> </vehicle>
    <vehicle id="random59" type="passenger" depart="67.00" departLane="free" departPos="random_free" departSpeed="random" color="red"> <route edges="-gneE659 gneE408 gneE408.17 -gneE406 -gneE296 -gneE295 -gneE294 -gneE293 -gneE291 -gneE290 gneE297 gneE252 gneE253 gneE255 gneE262 gneE270 gneE274 gneE279 gneE320 gneE321 gneE326"/> </vehicle>
    <vehicle id="random60" type="passenger" depart="67.00" departLane="free" departPos="random_free" departSpeed="random" color="red"> <route edges="-gneE669 gneE554 -gneE552 -gneE142 -gneE140 -gneE137 gneE136 -gneE128 gneE131 gneE376 gneE377 gneE378 gneE626 gneE627 gneE256 gneE257 gneE261 -gneE297 gneE290 gneE291 gneE293 gneE294 gneE295 gneE296 gneE406 gneE411"/> </vehicle>
    <vehicle id="random61" type="passenger" depart="68.00" departLane="free" departPos="random_free" departSpeed="random" color="red"> <route edges="-gneE411 -gneE406 -gneE296 -gneE295 -gneE294 -gneE293 -gneE291 -gneE290 gneE297 gneE252 gneE253 gneE396 gneE628 gneE629 gneE248 gneE374 gneE375 -gneE131 gneE128 -gneE136 gneE137 gneE140 gneE142 gneE552 gneE553"/> </vehicle>
    <vehicle id="random62" type="passenger" depart="68.00" departLane="free" departPos="random_free" departSpeed="random" color="red"> <route edges="-gneE553 -gneE552 -gneE142 -gneE140 -gneE137 gneE136 -gneE128 gneE131 gneE376 gneE377 gneE378 gneE626 gneE627 gneE256 gneE257 gneE261 -gneE297 gneE290 gneE434 gneE425 gneE428 gneE430 gneE406 gneE594 gneE594.1 gneE659"/> </vehicle>
    <vehicle id="random64" type="passenger" depart="68.00" departLane="free" departPos="random_free" departSpeed="random" color="red"> <route edges="-gneE10 gneE11 gneE19 gneE20 gneE444 -gneE441 -gneE440 -gneE413 gneE411"/> </vehicle>
    <vehicle id="random65" type="passenger" depart="69.00" departLane="free" departPos="random_free" departSpeed="random"> <route edges="gneE457 gneE459 gneE253 gneE396 gneE628 gneE629 gneE248 gneE374 gneE375 -gneE131 gneE128 -gneE136 gneE137 gneE140 gneE142 gneE145 gneE147 gneE172 gneE189 gneE669"/> </vehicle>
    <vehicle id="random66" type="passenger" depart="69.00" departLane="free" departPos="random_free" departSpeed="random" color="red"> <route edges="gneE667 gneE327 gneE322 gneE311 gneE688 gneE272 gneE271 gneE263 gneE273 gneE269 gneE256 gneE257 gneE261 -gneE297 gneE290 gneE291 gneE293 gneE294 gneE295 gneE296 gneE406 gneE411"/> </vehicle>
    <vehicle id="random67" type="passenger" depart="70.00" departLane="free" departPos="random_free" departSpeed="random"> <route edges="gneE321 gneE322 gneE311 gneE688 gneE272 gneE271 gneE263 gneE273 gneE269 gneE256 gneE257 gneE261 -gneE297 gneE290 gneE291 gneE480"/> </vehicle>
    <vehicle id="random68" type="passenger" depart="70.00" departLane="free" departPos="random_free" departSpeed="random"> <route edges="gneE343 gneE344 gneE346 gneE322 gneE311 gneE688 gneE272 gneE271 gneE263 gneE273 gneE269 gneE628 gneE629 gneE248 gneE374 gneE375 -gneE131 gneE656 gneE133"/> </vehicle>
    <vehicle id="random69" type="passenger" depart="71.00" departLane="free" departPos="random_free" departSpeed="random" color="red"> <route edges="-gneE659 -gneE594 -gneE406 -gneE296 -gneE295 -gneE294 -gneE293 -gneE291 -gneE290 gneE297 gneE252 gneE253 gneE255"/> </vehicle>
    <vehicle id="random70" type="passenger" depart="72.00" departLane="free" departPos="random_free" departSpeed="random" color="red"> <route edges="gneE532 -gneE394.4 gneE262 gneE270 gneE274 gneE279 gneE320 gneE240 -gneE239 gneE229 gneE232 gneE152 -gneE142 -gneE140 -gneE137"/> </vehicle>
    <vehicle id="random72" type="passenger" depart="75.00" departLane="free" departPos="random_free" departSpeed="random"> <route edges="gneE269 gneE256 gneE257 gneE261 gneE310 -gneE310 gneE252 gneE253 gneE255 gneE262 gneE270 gneE275 gneE277 gneE675"/> </vehicle>
    <vehicle id="random73" type="passenger" depart="75.00" departLane="free" departPos="random_free" departSpeed="random" color="red"> <route edges="-gneE659 gneE408 gneE408.17 gneE413 gneE440 gneE469 gneE470 gneE471 gneE443 gneE17 gneE526 gneE657"/> </vehicle>
    <vehicle id="random74" type="passenger" depart="76.00" departLane="free" departPos="random_free" departSpeed="random" color="red"> <route edges="-gneE411 -gneE406 -gneE296 -gneE295 -gneE294 -gneE293 -gneE291 -gneE290 gneE297 gneE252 gneE253 gneE255 gneE262 gneE270 gneE274 gneE279 gneE320 gneE321 gneE326"/> </vehicle>
    <vehicle id="random75" type="passenger" depart="77.00" departLane="free" departPos="random_free" departSpeed="random" color="red"> <route edges="gneE667 gneE327 gneE322 gneE311 gneE688 gneE272 gneE271 gneE263 gneE273 gneE267 gneE268 gneE256 gneE257 gneE473 gneE671"/> </vehicle>
    <vehicle id="random76" type="passenger" depart="77.00" departLane="free" departPos="random_free" departSpeed="random" color="red"> <route edges="gneE532 -gneE394.4 gneE256 gneE257 gneE261 -gneE297 gneE290 gneE291 gneE293 gneE294 gneE295 gneE296 gneE406 gneE411"/> </vehicle>
    <vehicle id="random77" type="passenger" depart="79.00" departLane="free" departPos="random_free" departSpeed="random" color="red"> <route edges="-gneE659 gneE408 gneE408.17 gneE413 gneE440 gneE469 gneE470 gneE471 gneE443 gneE17 gneE25 gneE26 gneE70 -gneE71 gneE72 gneE73 gneE79 gneE115 gneE116 gneE120 gneE121 gneE128 -gneE136 gneE137 gneE140 gneE142 gneE145 gneE147 gneE172 gneE189 gneE669"/> </vehicle>
    <vehicle id="random78" type="passenger" depart="79.00" departLane="free" departPos="random_free" departSpeed="random" color="red"> <route edges="-gneE659 -gneE594 -gneE406 -gneE296 -gneE295 -gneE294 -gneE293 -gneE291 -gneE290 gneE297 gneE252 gneE253 gneE255 gneE394 gneE531"/> </vehicle>
    <vehicle id="random79" type="passenger" depart="79.00" departLane="free" departPos="random_free" departSpeed="random" color="red"> <route edges="-gneE659 gneE408 gneE408.17 gneE413 gneE440 gneE469 gneE470 gneE471 gneE443 gneE17 gneE25 gneE26 gneE70 -gneE71 gneE72 gneE73"/> </vehicle>
    <vehicle id="random81" type="passenger" depart="82.00" departLane="free" departPos="random_free" departSpeed="random" color="red"> <route edges="-gneE10 gneE11 gneE19 gneE20 gneE436 gneE414 gneE594 gneE594.1 gneE659"/> </vehicle>
    <vehicle id="random82" type="passenger" depart="85.00" departLane="free" departPos="random_free" departSpeed="random" color="red"> <route edges="-gneE553 -gneE552 -gneE142 -gneE140 -gneE137 gneE136 -gneE128 -gneE121 -gneE120 -gneE116 -gneE115 -gneE79 -gneE73 -gneE72 gneE71 -gneE70 -gneE26 -gneE25 gneE25 gneE26 gneE70 -gneE71 gneE72"/> </vehicle>
    <vehicle id="random83" type="passenger" depart="85.00" departLane="free" departPos="random_free" departSpeed="random" color="red"> <route edges="-gneE411 -gneE406 -gneE296 -gneE295 -gneE294 -gneE293 -gneE291 -gneE290 gneE297 gneE252 -gneE459 -gneE457 -gneE117 -gneE115 -gneE79 gneE79 gneE115 gneE116"/> </vehicle>
    <vehicle id="random84" type="passenger" depart="85.00" departLane="free" departPos="random_free" departSpeed="random" color="red"> <route edges="-gneE10 gneE11 gneE19 gneE25 gneE26 gneE70 -gneE71 gneE72 gneE73 gneE79 gneE115 gneE116 gneE120 gneE121 gneE131 gneE376 gneE377 gneE378 gneE626 gneE627"/> </vehicle>
    <vehicle id="random85" type="passenger" depart="86.00" departLane="free" departPos="random_free" departSpeed="random" color="red"> <route edges="-gneE669 gneE554 -gneE552 -gneE142 -gneE140 -gneE137 gneE136 -gneE128 gneE131 gneE376 gneE377 gneE378 gneE626 gneE627 gneE256 gneE257 gneE261 -gneE297 gneE290 gneE434 gneE425 gneE428 gneE430 gneE406 gneE594 gneE594.1 gneE659"/> </vehicle>
    <vehicle id="random86" type="passenger" depart="86.00" departLane="free" departPos="random_free" departSpeed="random" color="red"> <route edges="-gneE10 gneE11 gneE19 gneE20 gneE436 gneE415 -gneE406 -gneE296 -gneE295 -gneE294 -gneE293 -gneE291 -gneE290 gneE297 gneE252 gneE253 gneE255 gneE394 gneE531"/> </vehicle>
    <vehicle id="random87" type="passenger" depart="88.00" departLane="free" departPos="random_free" departSpeed="random" color="red"> <route edges="-gneE657 -gneE526 gneE25 gneE26 gneE70 -gneE71 gneE72 gneE73 gneE79 gneE115 gneE116 gneE120 gneE121 gneE131 gneE376"/> </vehicle>
    <vehicle id="random88" type="passenger" depart="88.00" departLane="free" departPos="random_free" departSpeed="random" color="red"> <route edges="-gneE133 -gneE656 -gneE121 -gneE120 -gneE116 -gneE115 -gneE79 -gneE73 -gneE72 gneE71 -gneE70 -gneE26 -gneE25 gneE20 gneE436 gneE414 gneE594 gneE594.1 gneE659"/> </vehicle>
    <vehicle id="random89" type="passenger" depart="89.00" departLane="free" departPos="random_free" departSpeed="random"> <route edges="gneE279 gneE320 gneE321 gneE322 gneE311 gneE688 gneE272 gneE271 gneE263 gneE273 gneE269 gneE628 gneE629 gneE248 gneE374 gneE375 -gneE131 -gneE121 -gneE120 -gneE116 -gneE115 -gneE79 -gneE73 -gneE72 gneE71"/> </vehicle>
    <vehicle id="random90" type="passenger" depart="90.00" departLane="free" departPos="random_free" departSpeed="random"> <route edges="gneE70 -gneE71 gneE72 gneE73 gneE79 gneE115 gneE116 gneE120 gneE121 gneE131 gneE376 gneE377 gneE378 gneE626 gneE627 gneE394 gneE531"/> </vehicle>
    <vehicle id="random91" type="passenger" depart="90.00" departLane="free" departPos="random_free" departSpeed="random" color="red"> <route edges="-gneE553 -gneE552 -gneE142 -gneE140 -gneE137 gneE136 -gneE128 gneE131 gneE376 gneE377 gneE378 gneE626 gneE627 gneE394 gneE531"/> </vehicle>
    <vehicle id="random93" type="passenger" depart="92.00" departLane="free" departPos="random_free" departSpeed="random" color="red"> <route edges="-gneE657 -gneE526 gneE20 gneE436 gneE415 -gneE406 -gneE296 -gneE295 -gneE294 -gneE293 -gneE291 -gneE290 gneE297 gneE252 gneE253 gneE255 gneE394 gneE531"/> </vehicle>
    <vehicle id="random94" type="passenger" depart="93.00" departLane="free" departPos="random_free" departSpeed="random" color="red"> <route edges="-gneE553 gneE555 -gneE210 gneE337 gneE343 gneE674 gneE675"/> </vehicle>
    <vehicle id="random95" type="passenger" depart="93.00" departLane="free" departPos="random_free" departSpeed="random"> <route edges="gneE555 -gneE210 gneE337 gneE343 gneE344 gneE346 gneE322 gneE311 gneE688 gneE272 gneE271 gneE263 gneE273 gneE269 gneE256 gneE257 gneE261 -gneE297 gneE290 gneE291 gneE293 gneE294 gneE295 gneE296 gneE406 gneE411"/> </vehicle>
    <vehicle id="random97" type="passenger" depart="94.00" departLane="free" departPos="random_free" departSpeed="random"> <route edges="-gneE210 gneE337 gneE343 gneE344 gneE346 gneE322 gneE311 gneE688 gneE272 gneE271 gneE263 gneE273 gneE267 gneE268 gneE256 gneE257 gneE473 gneE671"/> </vehicle>
    <vehicle id="random99" type="passenger" depart="95.00" departLane="free" departPos="random_free" departSpeed="random"> <route edges="gneE343 gneE344 gneE346 gneE322 gneE311 gneE688 gneE272 gneE271 gneE263 gneE273 gneE267 gneE268 gneE256 gneE257 gneE473 gneE671"/> </vehicle>
    <vehicle id="random100" type="passenger" depart="96.00" departLane="free" departPos="random_free" departSpeed="random" color="red"> <route edges="-gneE669 gneE554 -gneE552 -gneE142 -gneE140 -gneE137 gneE136 -gneE128 -gneE121 -gneE120 -gneE116 -gneE115 -gneE79 -gneE73 -gneE72 gneE71 -gneE70 -gneE26 -gneE25 -gneE19 -gneE11 gneE10"/> </vehicle>
    <vehicle id="random101" type="passenger" depart="100.00" departLane="free" departPos="random_free" departSpeed="random" color="red"> <route edges="gneE412 gneE413 gneE440 gneE469 gneE470 gneE471 gneE443 gneE17 -gneE19 -gneE11 gneE10"/> </vehicle>
    <vehicle id="random102" type="passenger" depart="102.00" departLane="free" departPos="random_free" departSpeed="random" color="red"> <route edges="-gneE133 -gneE656 -gneE121 -gneE120 -gneE116 -gneE115 -gneE79 -gneE73"/> </vehicle>
    <vehicle id="random103" type="passenger" depart="102.00" departLane="free" departPos="random_free" departSpeed="random" color="red"> <route edges="-gneE10 gneE11 gneE19 gneE20 gneE436 gneE415 -gneE406 -gneE296 -gneE295 -gneE294 -gneE293 -gneE291 -gneE290 gneE297 gneE252 gneE253 gneE255 gneE394 gneE531"/> </vehicle>