<?xml version="1.0" encoding="UTF-8"?>

<!-- generated on Mån  9 Aug 15:27:17 2021 by Eclipse SUMO netedit Version 1.9.0
<configuration xmlns:xsi="http://www.w3.org/2001/XMLSchema-instance" xsi:noNamespaceSchemaLocation="http://sumo.dlr.de/xsd/netconvertConfiguration.xsd">

    <input>
        <sumo-net-file value="/Users/anders/tekno/__V2__/NET/v5_7.net.xml"/>
    </input>

    <output>
        <output-file value="/Users/anders/tekno/__V2__/NET/v5_7.net.xml"/>
    </output>

    <processing>
        <geometry.min-radius.fix.railways value="false"/>
        <geometry.max-grade.fix value="false"/>
        <offset.disable-normalization value="true"/>
        <lefthand value="false"/>
    </processing>

    <tls_building>
        <tls.ignore-internal-junction-jam value="true"/>
    </tls_building>

    <junctions>
        <no-internal-links value="false"/>
        <no-turnarounds value="true"/>
        <junctions.corner-detail value="5"/>
        <junctions.limit-turn-speed value="5.5"/>
        <rectangular-lane-cut value="false"/>
    </junctions>

    <pedestrian>
        <walkingareas value="true"/>
    </pedestrian>

    <report>
        <aggregate-warnings value="5"/>
    </report>

</configuration>
-->

<net version="1.9" junctionCornerDetail="5" walkingareas="true" limitTurnSpeed="5.50" tlsIgnoreInternalJunctionJam="0" xmlns:xsi="http://www.w3.org/2001/XMLSchema-instance" xsi:noNamespaceSchemaLocation="http://sumo.dlr.de/xsd/net_file.xsd">

    <location netOffset="0.00,0.00" convBoundary="4890.91,1258.24,7005.81,2644.22" origBoundary="-10000000000.00,-10000000000.00,10000000000.00,10000000000.00" projParameter="!"/>

    <edge id=":cluster_cluster_cluster_cluster_cluster_gneJ266_gneJ379_gneJ386_gneJ262_gneJ568_gneJ574_gneJ277_gneJ591_gneJ590_0" function="internal">
        <lane id=":cluster_cluster_cluster_cluster_cluster_gneJ266_gneJ379_gneJ386_gneJ262_gneJ568_gneJ574_gneJ277_gneJ591_gneJ590_0_0" index="0" allow="private emergency authority vip pedestrian passenger hov taxi delivery motorcycle moped bicycle evehicle custom1 custom2" speed="11.11" length="36.82" shape="5383.81,2271.58 5371.11,2272.45 5362.02,2275.34 5356.53,2280.25 5354.66,2287.19"/>
    </edge>
    <edge id=":cluster_cluster_cluster_cluster_cluster_gneJ266_gneJ379_gneJ386_gneJ262_gneJ568_gneJ574_gneJ277_gneJ591_gneJ590_1" function="internal">
        <lane id=":cluster_cluster_cluster_cluster_cluster_gneJ266_gneJ379_gneJ386_gneJ262_gneJ568_gneJ574_gneJ277_gneJ591_gneJ590_1_0" index="0" allow="bus" speed="8.33" length="34.77" shape="5383.81,2271.58 5377.69,2272.09 5368.34,2273.26 5358.06,2274.44 5349.12,2274.98"/>
        <lane id=":cluster_cluster_cluster_cluster_cluster_gneJ266_gneJ379_gneJ386_gneJ262_gneJ568_gneJ574_gneJ277_gneJ591_gneJ590_1_1" index="1" allow="private emergency authority passenger hov taxi delivery evehicle" speed="8.33" length="34.77" shape="5383.81,2271.58 5349.13,2271.78"/>
    </edge>
    <edge id=":cluster_cluster_cluster_cluster_cluster_gneJ266_gneJ379_gneJ386_gneJ262_gneJ568_gneJ574_gneJ277_gneJ591_gneJ590_3" function="internal">
        <lane id=":cluster_cluster_cluster_cluster_cluster_gneJ266_gneJ379_gneJ386_gneJ262_gneJ568_gneJ574_gneJ277_gneJ591_gneJ590_3_0" index="0" allow="private emergency authority army vip passenger hov taxi bus coach delivery truck trailer motorcycle evehicle custom1 custom2" speed="9.72" length="34.81" shape="5383.81,2271.58 5349.14,2268.49"/>
    </edge>
    <edge id=":cluster_cluster_cluster_cluster_cluster_gneJ266_gneJ379_gneJ386_gneJ262_gneJ568_gneJ574_gneJ277_gneJ591_gneJ590_4" function="internal">
        <lane id=":cluster_cluster_cluster_cluster_cluster_gneJ266_gneJ379_gneJ386_gneJ262_gneJ568_gneJ574_gneJ277_gneJ591_gneJ590_4_0" index="0" allow="private emergency authority vip passenger hov taxi delivery motorcycle evehicle custom1 custom2" speed="12.50" length="39.25" shape="5383.81,2268.14 5371.12,2269.24 5362.03,2272.77 5356.55,2278.76 5354.66,2287.19"/>
    </edge>
    <edge id=":cluster_cluster_cluster_cluster_cluster_gneJ266_gneJ379_gneJ386_gneJ262_gneJ568_gneJ574_gneJ277_gneJ591_gneJ590_5" function="internal">
        <lane id=":cluster_cluster_cluster_cluster_cluster_gneJ266_gneJ379_gneJ386_gneJ262_gneJ568_gneJ574_gneJ277_gneJ591_gneJ590_5_0" index="0" allow="bus" speed="9.72" length="35.16" shape="5383.81,2268.14 5375.58,2269.17 5366.47,2271.52 5357.36,2273.89 5349.12,2274.98"/>
        <lane id=":cluster_cluster_cluster_cluster_cluster_gneJ266_gneJ379_gneJ386_gneJ262_gneJ568_gneJ574_gneJ277_gneJ591_gneJ590_5_1" index="1" allow="private emergency authority passenger hov taxi delivery evehicle" speed="9.72" length="35.16" shape="5383.81,2268.14 5375.58,2268.67 5366.47,2269.92 5357.36,2271.19 5349.13,2271.78"/>
    </edge>
    <edge id=":cluster_cluster_cluster_cluster_cluster_gneJ266_gneJ379_gneJ386_gneJ262_gneJ568_gneJ574_gneJ277_gneJ591_gneJ590_7" function="internal">
        <lane id=":cluster_cluster_cluster_cluster_cluster_gneJ266_gneJ379_gneJ386_gneJ262_gneJ568_gneJ574_gneJ277_gneJ591_gneJ590_7_0" index="0" allow="private emergency authority army vip passenger hov taxi bus coach delivery truck trailer motorcycle evehicle custom1 custom2" speed="11.11" length="34.67" shape="5383.81,2268.14 5349.14,2268.49"/>
        <lane id=":cluster_cluster_cluster_cluster_cluster_gneJ266_gneJ379_gneJ386_gneJ262_gneJ568_gneJ574_gneJ277_gneJ591_gneJ590_7_1" index="1" allow="private emergency authority army vip passenger hov taxi bus coach delivery truck trailer motorcycle evehicle custom1 custom2" speed="11.11" length="34.67" shape="5383.81,2264.94 5349.15,2265.29"/>
    </edge>
    <edge id=":cluster_cluster_cluster_cluster_cluster_gneJ266_gneJ379_gneJ386_gneJ262_gneJ568_gneJ574_gneJ277_gneJ591_gneJ590_9" function="internal">
        <lane id=":cluster_cluster_cluster_cluster_cluster_gneJ266_gneJ379_gneJ386_gneJ262_gneJ568_gneJ574_gneJ277_gneJ591_gneJ590_9_0" index="0" allow="private emergency authority vip passenger hov taxi delivery motorcycle evehicle custom1 custom2" speed="9.62" length="5.65" shape="5383.81,2264.94 5378.46,2263.14"/>
    </edge>
    <edge id=":cluster_cluster_cluster_cluster_cluster_gneJ266_gneJ379_gneJ386_gneJ262_gneJ568_gneJ574_gneJ277_gneJ591_gneJ590_24" function="internal">
        <lane id=":cluster_cluster_cluster_cluster_cluster_gneJ266_gneJ379_gneJ386_gneJ262_gneJ568_gneJ574_gneJ277_gneJ591_gneJ590_24_0" index="0" allow="private emergency authority vip passenger hov taxi delivery motorcycle evehicle custom1 custom2" speed="9.62" length="30.58" shape="5378.46,2263.14 5374.95,2261.97 5370.97,2254.91 5372.08,2246.27 5378.53,2238.54"/>
    </edge>
    <edge id=":cluster_cluster_cluster_cluster_cluster_gneJ266_gneJ379_gneJ386_gneJ262_gneJ568_gneJ574_gneJ277_gneJ591_gneJ590_10" function="internal">
        <lane id=":cluster_cluster_cluster_cluster_cluster_gneJ266_gneJ379_gneJ386_gneJ262_gneJ568_gneJ574_gneJ277_gneJ591_gneJ590_10_0" index="0" allow="moped bicycle" speed="6.78" length="17.39" shape="5381.41,2240.55 5377.10,2244.17 5376.26,2246.69 5378.90,2248.12 5385.00,2248.45"/>
    </edge>
    <edge id=":cluster_cluster_cluster_cluster_cluster_gneJ266_gneJ379_gneJ386_gneJ262_gneJ568_gneJ574_gneJ277_gneJ591_gneJ590_11" function="internal">
        <lane id=":cluster_cluster_cluster_cluster_cluster_gneJ266_gneJ379_gneJ386_gneJ262_gneJ568_gneJ574_gneJ277_gneJ591_gneJ590_11_0" index="0" allow="private emergency authority vip passenger hov taxi delivery motorcycle evehicle custom1 custom2" speed="8.54" length="28.30" shape="5381.41,2240.55 5373.70,2246.87 5371.53,2251.40 5374.90,2254.14 5383.81,2255.10"/>
    </edge>
    <edge id=":cluster_cluster_cluster_cluster_cluster_gneJ266_gneJ379_gneJ386_gneJ262_gneJ568_gneJ574_gneJ277_gneJ591_gneJ590_12" function="internal">
        <lane id=":cluster_cluster_cluster_cluster_cluster_gneJ266_gneJ379_gneJ386_gneJ262_gneJ568_gneJ574_gneJ277_gneJ591_gneJ590_12_0" index="0" allow="pedestrian" speed="13.89" length="36.06" shape="5349.20,2248.60 5357.62,2248.14 5367.14,2247.04 5376.66,2245.89 5385.08,2245.25"/>
    </edge>
    <edge id=":cluster_cluster_cluster_cluster_cluster_gneJ266_gneJ379_gneJ386_gneJ262_gneJ568_gneJ574_gneJ277_gneJ591_gneJ590_13" function="internal">
        <lane id=":cluster_cluster_cluster_cluster_cluster_gneJ266_gneJ379_gneJ386_gneJ262_gneJ568_gneJ574_gneJ277_gneJ591_gneJ590_13_0" index="0" allow="moped bicycle" speed="11.11" length="9.65" shape="5349.19,2251.80 5357.41,2250.15 5358.56,2249.64"/>
    </edge>
    <edge id=":cluster_cluster_cluster_cluster_cluster_gneJ266_gneJ379_gneJ386_gneJ262_gneJ568_gneJ574_gneJ277_gneJ591_gneJ590_14" function="internal">
        <lane id=":cluster_cluster_cluster_cluster_cluster_gneJ266_gneJ379_gneJ386_gneJ262_gneJ568_gneJ574_gneJ277_gneJ591_gneJ590_14_0" index="0" allow="moped bicycle" speed="13.89" length="35.98" shape="5349.19,2251.80 5357.60,2251.34 5367.10,2250.25 5376.60,2249.10 5385.00,2248.45"/>
    </edge>
    <edge id=":cluster_cluster_cluster_cluster_cluster_gneJ266_gneJ379_gneJ386_gneJ262_gneJ568_gneJ574_gneJ277_gneJ591_gneJ590_25" function="internal">
        <lane id=":cluster_cluster_cluster_cluster_cluster_gneJ266_gneJ379_gneJ386_gneJ262_gneJ568_gneJ574_gneJ277_gneJ591_gneJ590_25_0" index="0" allow="moped bicycle" speed="11.11" length="22.90" shape="5358.56,2249.64 5366.07,2246.26 5373.62,2241.83 5378.53,2238.54"/>
    </edge>
    <edge id=":cluster_cluster_cluster_cluster_cluster_gneJ266_gneJ379_gneJ386_gneJ262_gneJ568_gneJ574_gneJ277_gneJ591_gneJ590_15" function="internal">
        <lane id=":cluster_cluster_cluster_cluster_cluster_gneJ266_gneJ379_gneJ386_gneJ262_gneJ568_gneJ574_gneJ277_gneJ591_gneJ590_15_0" index="0" allow="private emergency authority vip passenger hov taxi delivery motorcycle evehicle custom1 custom2" speed="9.72" length="34.69" shape="5349.18,2255.41 5359.51,2253.22 5367.94,2248.09 5374.32,2242.40 5378.53,2238.54"/>
    </edge>
    <edge id=":cluster_cluster_cluster_cluster_cluster_gneJ266_gneJ379_gneJ386_gneJ262_gneJ568_gneJ574_gneJ277_gneJ591_gneJ590_16" function="internal">
        <lane id=":cluster_cluster_cluster_cluster_cluster_gneJ266_gneJ379_gneJ386_gneJ262_gneJ568_gneJ574_gneJ277_gneJ591_gneJ590_16_0" index="0" allow="bus" speed="12.50" length="35.96" shape="5349.18,2255.41 5360.39,2254.87 5370.80,2253.59 5379.34,2252.30 5384.92,2251.70"/>
    </edge>
    <edge id=":cluster_cluster_cluster_cluster_cluster_gneJ266_gneJ379_gneJ386_gneJ262_gneJ568_gneJ574_gneJ277_gneJ591_gneJ590_17" function="internal">
        <lane id=":cluster_cluster_cluster_cluster_cluster_gneJ266_gneJ379_gneJ386_gneJ262_gneJ568_gneJ574_gneJ277_gneJ591_gneJ590_17_0" index="0" allow="private emergency authority army vip passenger hov taxi bus coach delivery truck trailer motorcycle evehicle custom1 custom2" speed="11.11" length="34.64" shape="5349.18,2255.41 5383.81,2255.10"/>
        <lane id=":cluster_cluster_cluster_cluster_cluster_gneJ266_gneJ379_gneJ386_gneJ262_gneJ568_gneJ574_gneJ277_gneJ591_gneJ590_17_1" index="1" allow="private emergency authority army vip passenger hov taxi bus coach delivery truck trailer motorcycle evehicle custom1 custom2" speed="11.11" length="34.64" shape="5349.17,2258.61 5383.81,2258.30"/>
        <lane id=":cluster_cluster_cluster_cluster_cluster_gneJ266_gneJ379_gneJ386_gneJ262_gneJ568_gneJ574_gneJ277_gneJ591_gneJ590_17_2" index="2" allow="private emergency authority army vip passenger hov taxi bus coach delivery truck trailer motorcycle evehicle custom1 custom2" speed="11.11" length="34.64" shape="5349.16,2261.81 5383.81,2261.50"/>
    </edge>
    <edge id=":cluster_cluster_cluster_cluster_cluster_gneJ266_gneJ379_gneJ386_gneJ262_gneJ568_gneJ574_gneJ277_gneJ591_gneJ590_20" function="internal">
        <lane id=":cluster_cluster_cluster_cluster_cluster_gneJ266_gneJ379_gneJ386_gneJ262_gneJ568_gneJ574_gneJ277_gneJ591_gneJ590_20_0" index="0" allow="private emergency authority vip passenger hov taxi delivery motorcycle evehicle custom1 custom2" speed="10.87" length="3.23" shape="5349.16,2261.81 5351.65,2263.41 5351.74,2263.66"/>
    </edge>
    <edge id=":cluster_cluster_cluster_cluster_cluster_gneJ266_gneJ379_gneJ386_gneJ262_gneJ568_gneJ574_gneJ277_gneJ591_gneJ590_26" function="internal">
        <lane id=":cluster_cluster_cluster_cluster_cluster_gneJ266_gneJ379_gneJ386_gneJ262_gneJ568_gneJ574_gneJ277_gneJ591_gneJ590_26_0" index="0" allow="private emergency authority vip passenger hov taxi delivery motorcycle evehicle custom1 custom2" speed="10.87" length="23.89" shape="5351.74,2263.66 5353.39,2268.17 5354.40,2276.10 5354.66,2287.19"/>
    </edge>
    <edge id=":cluster_cluster_cluster_cluster_cluster_gneJ266_gneJ379_gneJ386_gneJ262_gneJ568_gneJ574_gneJ277_gneJ591_gneJ590_21" function="internal">
        <lane id=":cluster_cluster_cluster_cluster_cluster_gneJ266_gneJ379_gneJ386_gneJ262_gneJ568_gneJ574_gneJ277_gneJ591_gneJ590_21_0" index="0" allow="pedestrian" speed="13.89" length="34.89" shape="5383.81,2278.13 5375.57,2278.68 5366.46,2279.86 5357.34,2281.04 5349.10,2281.57"/>
    </edge>
    <edge id=":cluster_cluster_cluster_cluster_cluster_gneJ266_gneJ379_gneJ386_gneJ262_gneJ568_gneJ574_gneJ277_gneJ591_gneJ590_22" function="internal">
        <lane id=":cluster_cluster_cluster_cluster_cluster_gneJ266_gneJ379_gneJ386_gneJ262_gneJ568_gneJ574_gneJ277_gneJ591_gneJ590_22_0" index="0" allow="moped bicycle" speed="12.26" length="34.47" shape="5383.81,2274.93 5371.10,2275.71 5362.00,2278.01 5356.52,2281.84 5354.66,2287.19"/>
    </edge>
    <edge id=":cluster_cluster_cluster_cluster_cluster_gneJ266_gneJ379_gneJ386_gneJ262_gneJ568_gneJ574_gneJ277_gneJ591_gneJ590_23" function="internal">
        <lane id=":cluster_cluster_cluster_cluster_cluster_gneJ266_gneJ379_gneJ386_gneJ262_gneJ568_gneJ574_gneJ277_gneJ591_gneJ590_23_0" index="0" allow="moped bicycle" speed="13.89" length="34.88" shape="5383.81,2274.93 5375.58,2275.48 5366.46,2276.66 5357.35,2277.84 5349.11,2278.37"/>
    </edge>
    <edge id=":cluster_cluster_cluster_cluster_cluster_gneJ266_gneJ379_gneJ386_gneJ262_gneJ568_gneJ574_gneJ277_gneJ591_gneJ590_w1" function="walkingarea">
        <lane id=":cluster_cluster_cluster_cluster_cluster_gneJ266_gneJ379_gneJ386_gneJ262_gneJ568_gneJ574_gneJ277_gneJ591_gneJ590_w1_0" index="0" allow="pedestrian" speed="1.00" length="19.85" width="3.20" shape="5385.13,2246.85 5385.04,2243.65 5382.32,2241.87 5380.50,2239.24 5379.45,2239.85 5377.61,2237.23 5349.20,2247.00 5349.19,2250.20 5356.83,2250.02 5362.46,2249.48 5367.08,2248.74 5371.70,2247.96 5377.32,2247.28"/>
    </edge>
    <edge id=":cluster_cluster_cluster_cluster_cluster_gneJ266_gneJ379_gneJ386_gneJ262_gneJ568_gneJ574_gneJ277_gneJ591_gneJ590_w2" function="walkingarea">
        <lane id=":cluster_cluster_cluster_cluster_cluster_gneJ266_gneJ379_gneJ386_gneJ262_gneJ568_gneJ574_gneJ277_gneJ591_gneJ590_w2_0" index="0" allow="pedestrian" speed="1.00" length="24.43" width="3.20" shape="5349.11,2279.97 5349.10,2283.17 5353.06,2287.18 5356.26,2287.20 5383.81,2279.73 5383.81,2276.53 5376.40,2276.80 5370.94,2277.44 5366.46,2278.28 5361.98,2279.10 5356.52,2279.73"/>
    </edge>
    <edge id=":cluster_cluster_cluster_cluster_cluster_gneJ349_gneJ351_gneJ353_gneJ355_gneJ356_gneJ358_gneJ361_gneJ362_gneJ365_gneJ367_gneJ371_cluster_gneJ350_gneJ551_gneJ534_gneJ555_gneJ543_0" function="internal">
        <lane id=":cluster_cluster_cluster_cluster_cluster_gneJ349_gneJ351_gneJ353_gneJ355_gneJ356_gneJ358_gneJ361_gneJ362_gneJ365_gneJ367_gneJ371_cluster_gneJ350_gneJ551_gneJ534_gneJ555_gneJ543_0_0" index="0" allow="private emergency authority passenger hov taxi bus coach delivery evehicle" speed="9.64" length="21.08" shape="5125.03,2276.51 5120.30,2277.35 5116.87,2280.12 5114.74,2284.83 5113.92,2291.47"/>
    </edge>
    <edge id=":cluster_cluster_cluster_cluster_cluster_gneJ349_gneJ351_gneJ353_gneJ355_gneJ356_gneJ358_gneJ361_gneJ362_gneJ365_gneJ367_gneJ371_cluster_gneJ350_gneJ551_gneJ534_gneJ555_gneJ543_1" function="internal">
        <lane id=":cluster_cluster_cluster_cluster_cluster_gneJ349_gneJ351_gneJ353_gneJ355_gneJ356_gneJ358_gneJ361_gneJ362_gneJ365_gneJ367_gneJ371_cluster_gneJ350_gneJ551_gneJ534_gneJ555_gneJ543_1_0" index="0" allow="private emergency authority army vip passenger hov taxi bus coach delivery truck trailer motorcycle evehicle custom1 custom2" speed="10.34" length="24.22" shape="5125.03,2276.51 5118.58,2277.31 5113.90,2280.07 5110.99,2284.77 5109.85,2291.43"/>
    </edge>
    <edge id=":cluster_cluster_cluster_cluster_cluster_gneJ349_gneJ351_gneJ353_gneJ355_gneJ356_gneJ358_gneJ361_gneJ362_gneJ365_gneJ367_gneJ371_cluster_gneJ350_gneJ551_gneJ534_gneJ555_gneJ543_2" function="internal">
        <lane id=":cluster_cluster_cluster_cluster_cluster_gneJ349_gneJ351_gneJ353_gneJ355_gneJ356_gneJ358_gneJ361_gneJ362_gneJ365_gneJ367_gneJ371_cluster_gneJ350_gneJ551_gneJ534_gneJ555_gneJ543_2_0" index="0" allow="private emergency authority army vip passenger hov taxi bus coach delivery truck trailer motorcycle evehicle custom1 custom2" speed="11.11" length="56.35" shape="5125.09,2273.31 5106.64,2274.18 5092.31,2276.73 5080.44,2279.41 5069.35,2280.64"/>
    </edge>
    <edge id=":cluster_cluster_cluster_cluster_cluster_gneJ349_gneJ351_gneJ353_gneJ355_gneJ356_gneJ358_gneJ361_gneJ362_gneJ365_gneJ367_gneJ371_cluster_gneJ350_gneJ551_gneJ534_gneJ555_gneJ543_3" function="internal">
        <lane id=":cluster_cluster_cluster_cluster_cluster_gneJ349_gneJ351_gneJ353_gneJ355_gneJ356_gneJ358_gneJ361_gneJ362_gneJ365_gneJ367_gneJ371_cluster_gneJ350_gneJ551_gneJ534_gneJ555_gneJ543_3_0" index="0" allow="private emergency authority army vip passenger hov taxi bus coach delivery truck trailer motorcycle evehicle custom1 custom2" speed="11.11" length="56.19" shape="5125.15,2270.11 5106.01,2270.74 5090.49,2272.76 5078.36,2274.90 5069.36,2275.87"/>
        <lane id=":cluster_cluster_cluster_cluster_cluster_gneJ349_gneJ351_gneJ353_gneJ355_gneJ356_gneJ358_gneJ361_gneJ362_gneJ365_gneJ367_gneJ371_cluster_gneJ350_gneJ551_gneJ534_gneJ555_gneJ543_3_1" index="1" allow="private emergency authority army vip passenger hov taxi bus coach delivery truck trailer motorcycle evehicle custom1 custom2" speed="11.11" length="56.19" shape="5125.21,2266.91 5106.05,2267.54 5090.52,2269.56 5078.37,2271.70 5069.37,2272.67"/>
    </edge>
    <edge id=":cluster_cluster_cluster_cluster_cluster_gneJ349_gneJ351_gneJ353_gneJ355_gneJ356_gneJ358_gneJ361_gneJ362_gneJ365_gneJ367_gneJ371_cluster_gneJ350_gneJ551_gneJ534_gneJ555_gneJ543_5" function="internal">
        <lane id=":cluster_cluster_cluster_cluster_cluster_gneJ349_gneJ351_gneJ353_gneJ355_gneJ356_gneJ358_gneJ361_gneJ362_gneJ365_gneJ367_gneJ371_cluster_gneJ350_gneJ551_gneJ534_gneJ555_gneJ543_5_0" index="0" allow="bus" speed="11.11" length="47.20" shape="5125.27,2263.72 5115.08,2261.09 5101.36,2255.07 5089.33,2247.99 5084.24,2242.16"/>
        <lane id=":cluster_cluster_cluster_cluster_cluster_gneJ349_gneJ351_gneJ353_gneJ355_gneJ356_gneJ358_gneJ361_gneJ362_gneJ365_gneJ367_gneJ371_cluster_gneJ350_gneJ551_gneJ534_gneJ555_gneJ543_5_1" index="1" allow="private emergency authority army vip passenger hov taxi bus coach delivery truck trailer motorcycle evehicle custom1 custom2" speed="11.11" length="44.49" shape="5125.27,2263.72 5115.58,2261.16 5102.95,2255.26 5092.02,2248.23 5087.44,2242.24"/>
        <lane id=":cluster_cluster_cluster_cluster_cluster_gneJ349_gneJ351_gneJ353_gneJ355_gneJ356_gneJ358_gneJ361_gneJ362_gneJ365_gneJ367_gneJ371_cluster_gneJ350_gneJ551_gneJ534_gneJ555_gneJ543_5_2" index="2" allow="private emergency authority army vip passenger hov taxi bus coach delivery truck trailer motorcycle evehicle custom1 custom2" speed="11.11" length="42.90" shape="5125.33,2260.52 5115.64,2258.34 5102.99,2253.36 5092.04,2247.39 5087.44,2242.24"/>
    </edge>
    <edge id=":cluster_cluster_cluster_cluster_cluster_gneJ349_gneJ351_gneJ353_gneJ355_gneJ356_gneJ358_gneJ361_gneJ362_gneJ365_gneJ367_gneJ371_cluster_gneJ350_gneJ551_gneJ534_gneJ555_gneJ543_8" function="internal">
        <lane id=":cluster_cluster_cluster_cluster_cluster_gneJ349_gneJ351_gneJ353_gneJ355_gneJ356_gneJ358_gneJ361_gneJ362_gneJ365_gneJ367_gneJ371_cluster_gneJ350_gneJ551_gneJ534_gneJ555_gneJ543_8_0" index="0" allow="pedestrian" speed="8.31" length="15.88" width="2.00" shape="5111.81,2242.91 5112.62,2245.12 5115.18,2246.73 5119.49,2247.75 5125.55,2248.18"/>
    </edge>
    <edge id=":cluster_cluster_cluster_cluster_cluster_gneJ349_gneJ351_gneJ353_gneJ355_gneJ356_gneJ358_gneJ361_gneJ362_gneJ365_gneJ367_gneJ371_cluster_gneJ350_gneJ551_gneJ534_gneJ555_gneJ543_9" function="internal">
        <lane id=":cluster_cluster_cluster_cluster_cluster_gneJ349_gneJ351_gneJ353_gneJ355_gneJ356_gneJ358_gneJ361_gneJ362_gneJ365_gneJ367_gneJ371_cluster_gneJ350_gneJ551_gneJ534_gneJ555_gneJ543_9_0" index="0" allow="moped bicycle" speed="9.44" length="20.53" shape="5108.61,2242.82 5109.54,2246.18 5112.67,2248.63 5117.99,2250.16 5125.50,2250.78"/>
    </edge>
    <edge id=":cluster_cluster_cluster_cluster_cluster_gneJ349_gneJ351_gneJ353_gneJ355_gneJ356_gneJ358_gneJ361_gneJ362_gneJ365_gneJ367_gneJ371_cluster_gneJ350_gneJ551_gneJ534_gneJ555_gneJ543_10" function="internal">
        <lane id=":cluster_cluster_cluster_cluster_cluster_gneJ349_gneJ351_gneJ353_gneJ355_gneJ356_gneJ358_gneJ361_gneJ362_gneJ365_gneJ367_gneJ371_cluster_gneJ350_gneJ551_gneJ534_gneJ555_gneJ543_10_0" index="0" allow="moped bicycle" speed="9.72" length="49.51" shape="5108.61,2242.82 5109.81,2252.54 5112.83,2265.29 5115.87,2278.98 5117.12,2291.51"/>
    </edge>
    <edge id=":cluster_cluster_cluster_cluster_cluster_gneJ349_gneJ351_gneJ353_gneJ355_gneJ356_gneJ358_gneJ361_gneJ362_gneJ365_gneJ367_gneJ371_cluster_gneJ350_gneJ551_gneJ534_gneJ555_gneJ543_11" function="internal">
        <lane id=":cluster_cluster_cluster_cluster_cluster_gneJ349_gneJ351_gneJ353_gneJ355_gneJ356_gneJ358_gneJ361_gneJ362_gneJ365_gneJ367_gneJ371_cluster_gneJ350_gneJ551_gneJ534_gneJ555_gneJ543_11_0" index="0" allow="moped bicycle" speed="11.11" length="64.13" shape="5108.61,2242.82 5105.49,2260.79 5097.91,2273.62 5085.86,2281.30 5069.35,2283.84"/>
    </edge>
    <edge id=":cluster_cluster_cluster_cluster_cluster_gneJ349_gneJ351_gneJ353_gneJ355_gneJ356_gneJ358_gneJ361_gneJ362_gneJ365_gneJ367_gneJ371_cluster_gneJ350_gneJ551_gneJ534_gneJ555_gneJ543_12" function="internal">
        <lane id=":cluster_cluster_cluster_cluster_cluster_gneJ349_gneJ351_gneJ353_gneJ355_gneJ356_gneJ358_gneJ361_gneJ362_gneJ365_gneJ367_gneJ371_cluster_gneJ350_gneJ551_gneJ534_gneJ555_gneJ543_12_0" index="0" allow="private emergency authority army vip passenger hov taxi bus coach delivery truck trailer motorcycle evehicle custom1 custom2" speed="10.52" length="6.61" shape="5105.41,2242.74 5106.49,2247.53 5107.72,2248.70"/>
    </edge>
    <edge id=":cluster_cluster_cluster_cluster_cluster_gneJ349_gneJ351_gneJ353_gneJ355_gneJ356_gneJ358_gneJ361_gneJ362_gneJ365_gneJ367_gneJ371_cluster_gneJ350_gneJ551_gneJ534_gneJ555_gneJ543_50" function="internal">
        <lane id=":cluster_cluster_cluster_cluster_cluster_gneJ349_gneJ351_gneJ353_gneJ355_gneJ356_gneJ358_gneJ361_gneJ362_gneJ365_gneJ367_gneJ371_cluster_gneJ350_gneJ551_gneJ534_gneJ555_gneJ543_50_0" index="0" allow="private emergency authority army vip passenger hov taxi bus coach delivery truck trailer motorcycle evehicle custom1 custom2" speed="10.52" length="19.06" shape="5107.72,2248.70 5110.18,2251.02 5116.50,2253.22 5125.44,2254.12"/>
    </edge>
    <edge id=":cluster_cluster_cluster_cluster_cluster_gneJ349_gneJ351_gneJ353_gneJ355_gneJ356_gneJ358_gneJ361_gneJ362_gneJ365_gneJ367_gneJ371_cluster_gneJ350_gneJ551_gneJ534_gneJ555_gneJ543_13" function="internal">
        <lane id=":cluster_cluster_cluster_cluster_cluster_gneJ349_gneJ351_gneJ353_gneJ355_gneJ356_gneJ358_gneJ361_gneJ362_gneJ365_gneJ367_gneJ371_cluster_gneJ350_gneJ551_gneJ534_gneJ555_gneJ543_13_0" index="0" allow="private emergency authority passenger hov taxi bus coach delivery evehicle" speed="9.72" length="50.54" shape="5101.75,2242.64 5103.47,2254.48 5107.76,2267.05 5112.08,2279.63 5113.92,2291.47"/>
    </edge>
    <edge id=":cluster_cluster_cluster_cluster_cluster_gneJ349_gneJ351_gneJ353_gneJ355_gneJ356_gneJ358_gneJ361_gneJ362_gneJ365_gneJ367_gneJ371_cluster_gneJ350_gneJ551_gneJ534_gneJ555_gneJ543_14" function="internal">
        <lane id=":cluster_cluster_cluster_cluster_cluster_gneJ349_gneJ351_gneJ353_gneJ355_gneJ356_gneJ358_gneJ361_gneJ362_gneJ365_gneJ367_gneJ371_cluster_gneJ350_gneJ551_gneJ534_gneJ555_gneJ543_14_0" index="0" allow="private emergency authority army vip passenger hov taxi bus coach delivery truck trailer motorcycle evehicle custom1 custom2" speed="11.11" length="49.57" shape="5101.75,2242.64 5102.84,2255.18 5105.72,2268.91 5108.65,2281.70 5109.85,2291.43"/>
        <lane id=":cluster_cluster_cluster_cluster_cluster_gneJ349_gneJ351_gneJ353_gneJ355_gneJ356_gneJ358_gneJ361_gneJ362_gneJ365_gneJ367_gneJ371_cluster_gneJ350_gneJ551_gneJ534_gneJ555_gneJ543_14_1" index="1" allow="private emergency authority army vip passenger hov taxi bus coach delivery truck trailer motorcycle evehicle custom1 custom2" speed="11.11" length="49.57" shape="5098.55,2242.55 5099.64,2255.10 5102.52,2268.85 5105.45,2281.66 5106.65,2291.40"/>
    </edge>
    <edge id=":cluster_cluster_cluster_cluster_cluster_gneJ349_gneJ351_gneJ353_gneJ355_gneJ356_gneJ358_gneJ361_gneJ362_gneJ365_gneJ367_gneJ371_cluster_gneJ350_gneJ551_gneJ534_gneJ555_gneJ543_16" function="internal">
        <lane id=":cluster_cluster_cluster_cluster_cluster_gneJ349_gneJ351_gneJ353_gneJ355_gneJ356_gneJ358_gneJ361_gneJ362_gneJ365_gneJ367_gneJ371_cluster_gneJ350_gneJ551_gneJ534_gneJ555_gneJ543_16_0" index="0" allow="private emergency authority army vip passenger hov taxi bus coach delivery truck trailer motorcycle evehicle custom1 custom2" speed="11.11" length="47.64" shape="5095.35,2242.46 5093.27,2257.12 5088.25,2267.57 5080.28,2273.82 5069.36,2275.87"/>
    </edge>
    <edge id=":cluster_cluster_cluster_cluster_cluster_gneJ349_gneJ351_gneJ353_gneJ355_gneJ356_gneJ358_gneJ361_gneJ362_gneJ365_gneJ367_gneJ371_cluster_gneJ350_gneJ551_gneJ534_gneJ555_gneJ543_17" function="internal">
        <lane id=":cluster_cluster_cluster_cluster_cluster_gneJ349_gneJ351_gneJ353_gneJ355_gneJ356_gneJ358_gneJ361_gneJ362_gneJ365_gneJ367_gneJ371_cluster_gneJ350_gneJ551_gneJ534_gneJ555_gneJ543_17_0" index="0" allow="private emergency authority army vip passenger hov taxi bus coach delivery truck trailer motorcycle evehicle custom1 custom2" speed="11.11" length="41.54" shape="5090.73,2242.33 5088.97,2255.64 5084.82,2265.13 5078.29,2270.81 5069.37,2272.67"/>
    </edge>
    <edge id=":cluster_cluster_cluster_cluster_cluster_gneJ349_gneJ351_gneJ353_gneJ355_gneJ356_gneJ358_gneJ361_gneJ362_gneJ365_gneJ367_gneJ371_cluster_gneJ350_gneJ551_gneJ534_gneJ555_gneJ543_18" function="internal">
        <lane id=":cluster_cluster_cluster_cluster_cluster_gneJ349_gneJ351_gneJ353_gneJ355_gneJ356_gneJ358_gneJ361_gneJ362_gneJ365_gneJ367_gneJ371_cluster_gneJ350_gneJ551_gneJ534_gneJ555_gneJ543_18_0" index="0" allow="pedestrian" speed="7.56" length="3.52" width="2.00" shape="5069.42,2248.69 5072.92,2248.31"/>
    </edge>
    <edge id=":cluster_cluster_cluster_cluster_cluster_gneJ349_gneJ351_gneJ353_gneJ355_gneJ356_gneJ358_gneJ361_gneJ362_gneJ365_gneJ367_gneJ371_cluster_gneJ350_gneJ551_gneJ534_gneJ555_gneJ543_51" function="internal">
        <lane id=":cluster_cluster_cluster_cluster_cluster_gneJ349_gneJ351_gneJ353_gneJ355_gneJ356_gneJ358_gneJ361_gneJ362_gneJ365_gneJ367_gneJ371_cluster_gneJ350_gneJ551_gneJ534_gneJ555_gneJ543_51_0" index="0" allow="pedestrian" speed="7.56" length="9.14" width="2.00" shape="5072.92,2248.31 5073.30,2248.27 5076.09,2247.01 5077.81,2244.92 5078.44,2242.00"/>
    </edge>
    <edge id=":cluster_cluster_cluster_cluster_cluster_gneJ349_gneJ351_gneJ353_gneJ355_gneJ356_gneJ358_gneJ361_gneJ362_gneJ365_gneJ367_gneJ371_cluster_gneJ350_gneJ551_gneJ534_gneJ555_gneJ543_19" function="internal">
        <lane id=":cluster_cluster_cluster_cluster_cluster_gneJ349_gneJ351_gneJ353_gneJ355_gneJ356_gneJ358_gneJ361_gneJ362_gneJ365_gneJ367_gneJ371_cluster_gneJ350_gneJ551_gneJ534_gneJ555_gneJ543_19_0" index="0" allow="moped bicycle" speed="8.84" length="3.49" shape="5069.41,2251.75 5072.88,2251.30"/>
    </edge>
    <edge id=":cluster_cluster_cluster_cluster_cluster_gneJ349_gneJ351_gneJ353_gneJ355_gneJ356_gneJ358_gneJ361_gneJ362_gneJ365_gneJ367_gneJ371_cluster_gneJ350_gneJ551_gneJ534_gneJ555_gneJ543_20" function="internal">
        <lane id=":cluster_cluster_cluster_cluster_cluster_gneJ349_gneJ351_gneJ353_gneJ355_gneJ356_gneJ358_gneJ361_gneJ362_gneJ365_gneJ367_gneJ371_cluster_gneJ350_gneJ551_gneJ534_gneJ555_gneJ543_20_0" index="0" allow="moped bicycle" speed="12.50" length="56.10" shape="5069.41,2251.75 5125.50,2250.78"/>
    </edge>
    <edge id=":cluster_cluster_cluster_cluster_cluster_gneJ349_gneJ351_gneJ353_gneJ355_gneJ356_gneJ358_gneJ361_gneJ362_gneJ365_gneJ367_gneJ371_cluster_gneJ350_gneJ551_gneJ534_gneJ555_gneJ543_21" function="internal">
        <lane id=":cluster_cluster_cluster_cluster_cluster_gneJ349_gneJ351_gneJ353_gneJ355_gneJ356_gneJ358_gneJ361_gneJ362_gneJ365_gneJ367_gneJ371_cluster_gneJ350_gneJ551_gneJ534_gneJ555_gneJ543_21_0" index="0" allow="moped bicycle" speed="9.72" length="48.62" shape="5069.41,2251.75 5080.64,2256.72 5096.67,2268.37 5108.79,2279.60"/>
    </edge>
    <edge id=":cluster_cluster_cluster_cluster_cluster_gneJ349_gneJ351_gneJ353_gneJ355_gneJ356_gneJ358_gneJ361_gneJ362_gneJ365_gneJ367_gneJ371_cluster_gneJ350_gneJ551_gneJ534_gneJ555_gneJ543_22" function="internal">
        <lane id=":cluster_cluster_cluster_cluster_cluster_gneJ349_gneJ351_gneJ353_gneJ355_gneJ356_gneJ358_gneJ361_gneJ362_gneJ365_gneJ367_gneJ371_cluster_gneJ350_gneJ551_gneJ534_gneJ555_gneJ543_22_0" index="0" allow="bus" speed="10.00" length="3.45" shape="5069.41,2254.95 5072.83,2254.49"/>